final/Texas2k_series24_cases_with_dynamics/Texas2k_series24_case5_2024highrenewables/Texas2k_series24_case5_2024highrenewables.m
% Case saved by PowerWorld Simulator, version 23, build date October 25, 2023
% Case Information Header = 9 lines
% Texas2k_series24_case5_2024highrenewables
% This is a synthetic power system model that does NOT represent the actual grid. 
% It was developed at Texas A&M University and contains no CEII.
% [1] A.B. Birchfield, T. Xu, K.M. Gegner, K.S. Shetye, and T.J. Overbye,
%  "Grid Structural Characteristics as Validation Criteria for Synthetic Networks,"
%  IEEE Transactions on Power Systems, vol. 32, no. 4, pp. 3258-3265, July 2017.
% [2] J. Baek and A. B. Birchfield, “A tuning method for exciters and governors 
%  in realistic synthetic grids with dynamics,” 2023 North American Power 
%  Symposium (NAPS), Asheville, NC, USA, Oct. 2023, pp. 1-6.
function mpc = Texas2k_series24_case5_2024highrenewables
mpc.version = '2';
mpc.baseMVA =  100.00;

%% bus data 
mpc.bus = [
1001	1	10.04	5.89	0.00	0.00	1	0.9693003	14.483679	115.00	9	1.100	0.900	18.66	-0.00	0	0
1002	1	7.44	4.37	0.00	0.00	1	1.0290475	41.134955	115.00	9	1.100	0.900	18.66	0.00	0	0
1003	1	0.00	0.00	0.00	0.00	1	0.9966493	23.753037	115.00	9	1.100	0.900	18.66	-0.00	0	0
1004	2	0.00	0.00	0.00	0.00	1	1.0100001	16.851108	230.00	9	1.100	0.900	18.66	-0.00	0	0
1005	1	0.00	0.00	0.00	0.00	1	0.9980947	30.309346	115.00	9	1.100	0.900	18.66	-0.00	0	0
1006	2	0.00	0.00	0.00	0.00	1	1.0000001	31.392471	13.80	9	1.100	0.900	18.66	-0.00	0	0
1007	2	3.38	1.99	0.00	-6.82	1	1.0299579	43.743165	115.00	9	1.100	0.900	18.66	0.00	0	0
1008	1	0.00	0.00	0.00	0.00	1	1.0093771	29.976114	115.00	9	1.100	0.900	18.66	-0.00	0	0
1009	2	0.00	0.00	0.00	0.00	1	1.0047497	31.646846	13.80	9	1.100	0.900	18.66	-0.00	0	0
1010	1	0.00	0.00	0.00	-3.14	1	1.0300001	40.890834	115.00	9	1.100	0.900	18.66	0.00	0	0
1011	2	0.00	0.00	0.00	0.00	1	1.0302179	42.643797	22.00	9	1.100	0.900	18.66	-0.00	0	0
1012	1	1.44	0.85	0.00	9.50	1	1.0268307	16.628042	115.00	9	1.100	0.900	18.66	-0.00	0	0
1013	1	14.12	8.28	0.00	0.00	1	0.9949228	28.812512	115.00	9	1.100	0.900	18.66	-0.00	0	0
1014	1	1.07	0.63	0.00	0.00	1	0.9996611	30.168397	115.00	9	1.100	0.900	18.66	-0.00	0	0
1015	1	3.63	2.13	0.00	0.00	1	1.0327924	41.766261	115.00	9	1.100	0.900	18.66	0.00	0	0
1016	2	1.40	0.82	0.00	30.00	1	1.0000001	36.051286	115.00	9	1.100	0.900	18.66	0.00	0	0
1017	1	8.86	5.20	0.00	0.00	1	0.9772129	20.371583	115.00	9	1.100	0.900	18.66	-0.00	0	0
1018	1	0.03	0.02	0.00	0.00	1	0.9887099	21.786969	115.00	9	1.100	0.900	18.66	-0.00	0	0
1019	1	29.84	17.50	0.00	142.98	1	0.9845387	17.230604	115.00	9	1.100	0.900	18.66	0.00	0	0
1020	1	0.00	0.00	0.00	76.73	1	1.0001748	24.126916	115.00	9	1.100	0.900	18.66	-0.00	0	0
1021	2	0.00	0.00	0.00	0.00	1	1.0000001	27.479104	13.80	9	1.100	0.900	18.66	-0.00	0	0
1022	2	0.00	0.00	0.00	0.00	1	1.0013563	24.771500	115.00	9	1.100	0.900	18.66	-0.00	0	0
1023	2	0.00	0.00	0.00	0.00	1	1.0100001	31.902790	13.80	9	1.100	0.900	18.66	0.00	0	0
1024	1	30.45	17.86	0.00	0.00	1	0.9931140	22.973020	115.00	9	1.100	0.900	18.66	-0.00	0	0
1025	1	0.00	0.00	0.00	0.00	1	1.0001348	25.663299	115.00	9	1.100	0.900	18.66	-0.00	0	0
1026	2	0.00	0.00	0.00	0.00	1	1.0000001	30.482071	13.80	9	1.100	0.900	18.66	0.00	0	0
1027	2	48.88	28.68	0.00	75.00	1	1.0105217	22.524448	115.00	9	1.100	0.900	18.66	0.00	0	0
1028	2	4.84	2.84	0.00	0.00	1	1.0000001	21.655584	115.00	9	1.100	0.900	18.66	-0.00	0	0
1029	2	40.18	23.57	0.00	40.00	1	1.0000001	23.462632	115.00	9	1.100	0.900	18.66	0.00	0	0
1030	2	11.89	6.98	0.00	0.00	1	1.0203384	37.196287	115.00	9	1.100	0.900	18.66	-0.00	0	0
1031	1	4.47	2.62	0.00	0.00	1	1.0106727	37.679690	115.00	9	1.100	0.900	18.66	-0.00	0	0
1032	2	0.00	0.00	0.00	0.00	1	0.9927434	28.235865	115.00	9	1.100	0.900	18.66	-0.00	0	0
1033	2	0.00	0.00	0.00	50.00	1	1.0000001	24.759443	230.00	9	1.100	0.900	18.66	-0.00	0	0
1034	1	0.00	0.00	0.00	0.00	1	1.0009781	33.102638	115.00	9	1.100	0.900	18.66	-0.00	0	0
1035	2	0.00	0.00	0.00	0.00	1	1.0000001	34.750186	13.80	9	1.100	0.900	18.66	0.00	0	0
1036	2	6.57	3.85	0.00	0.00	1	0.9971471	32.194544	115.00	9	1.100	0.900	18.66	-0.00	0	0
1037	2	49.38	28.97	0.00	0.00	1	0.9719333	18.703512	115.00	9	1.100	0.900	18.66	-0.00	0	0
1038	1	0.00	0.00	0.00	0.00	1	1.0109451	33.332277	115.00	9	1.100	0.900	18.66	-0.00	0	0
1039	2	0.00	0.00	0.00	0.00	1	1.0018244	36.033731	22.00	9	1.100	0.900	18.66	0.00	0	0
1040	2	21.42	12.57	0.00	0.00	1	1.0000001	25.312854	115.00	9	1.100	0.900	18.66	-0.00	0	0
1041	1	0.00	0.00	0.00	0.00	1	1.0036489	32.361878	115.00	9	1.100	0.900	18.66	-0.00	0	0
1042	2	0.00	0.00	0.00	0.00	1	1.0036489	32.361878	13.80	9	1.100	0.900	18.66	-0.00	0	0
1043	2	0.00	0.00	0.00	0.00	1	1.0000001	33.984081	13.80	9	1.100	0.900	18.66	0.00	0	0
1044	2	7.09	4.16	0.00	0.00	1	1.0000001	13.889008	115.00	9	1.100	0.900	18.66	-0.00	0	0
1045	1	47.61	27.93	0.00	0.00	1	0.9747470	16.860105	115.00	9	1.100	0.900	18.66	-0.00	0	0
1046	2	5.35	3.14	0.00	12.00	1	1.0000001	23.664508	115.00	9	1.100	0.900	18.66	-0.00	0	0
1047	1	0.00	0.00	0.00	0.00	1	0.9918748	25.239398	115.00	9	1.100	0.900	18.66	-0.00	0	0
1048	2	0.00	0.00	0.00	0.00	1	0.9918748	25.239398	18.00	9	1.100	0.900	18.66	-0.00	0	0
1049	2	0.00	0.00	0.00	0.00	1	0.9918748	25.239398	18.00	9	1.100	0.900	18.66	-0.00	0	0
1050	2	0.00	0.00	0.00	0.00	1	1.0000001	26.420943	18.00	9	1.100	0.900	18.66	0.00	0	0
1051	2	0.00	0.00	0.00	0.00	1	0.9918748	25.239398	18.00	9	1.100	0.900	18.66	0.00	0	0
1052	2	0.00	0.00	0.00	0.00	1	0.9918748	25.239398	18.00	9	1.100	0.900	18.66	-0.00	0	0
1053	2	0.00	0.00	0.00	0.00	1	0.9962202	22.268664	230.00	9	1.100	0.900	18.66	-0.00	0	0
1054	1	7.24	4.25	0.00	0.00	1	1.0092234	26.768359	115.00	9	1.100	0.900	18.66	-0.00	0	0
1055	2	1.92	1.13	0.00	0.00	1	1.0000001	24.828106	115.00	9	1.100	0.900	18.66	-0.00	0	0
1056	1	0.00	0.00	0.00	80.00	1	1.0216925	25.773697	115.00	9	1.100	0.900	18.66	0.00	0	0
1057	2	0.00	0.00	0.00	0.00	1	1.0216925	25.773697	18.00	9	1.100	0.900	18.66	0.00	0	0
1058	1	6.50	3.81	0.00	0.00	1	1.0177047	28.011034	115.00	9	1.100	0.900	18.66	-0.00	0	0
1059	2	0.00	0.00	0.00	0.00	1	1.0177047	28.011034	22.00	9	1.100	0.900	18.66	-0.00	0	0
1060	2	0.00	0.00	0.00	0.00	1	1.0177047	28.011034	22.00	9	1.100	0.900	18.66	-0.00	0	0
1061	2	0.00	0.00	0.00	0.00	1	1.0000001	28.936633	115.00	9	1.100	0.900	18.66	-0.00	0	0
1062	2	0.00	0.00	0.00	0.00	1	1.0100001	31.015134	13.80	9	1.100	0.900	18.66	-0.00	0	0
1063	2	0.00	0.00	0.00	0.00	1	1.0100001	30.976771	13.80	9	1.100	0.900	18.66	-0.00	0	0
1064	1	59.78	35.07	0.00	0.00	1	0.9654584	14.840959	115.00	9	1.100	0.900	18.66	-0.00	0	0
1065	1	0.00	0.00	0.00	0.00	1	1.0057064	32.558793	115.00	9	1.100	0.900	18.66	-0.00	0	0
1066	2	0.00	0.00	0.00	0.00	1	1.0000001	36.325508	13.80	9	1.100	0.900	18.66	0.00	0	0
1067	1	49.05	28.77	0.00	0.00	1	1.0014323	31.762188	115.00	9	1.100	0.900	18.66	-0.00	0	0
1068	1	28.69	16.83	0.00	0.00	1	0.9897271	34.646136	115.00	9	1.100	0.900	18.66	-0.00	0	0
1069	1	0.00	0.00	0.00	0.00	1	1.0162045	30.474757	115.00	9	1.100	0.900	18.66	-0.00	0	0
1070	2	0.00	0.00	0.00	0.00	1	1.0287682	32.756654	13.80	9	1.100	0.900	18.66	0.00	0	0
1071	1	44.18	25.91	0.00	0.00	1	0.9732208	14.283084	115.00	9	1.100	0.900	18.66	0.00	0	0
1072	2	0.00	0.00	0.00	0.00	1	1.0100001	16.012688	18.00	9	1.100	0.900	18.66	0.00	0	0
1073	2	0.00	0.00	0.00	0.00	1	1.0100001	17.306529	18.00	9	1.100	0.900	18.66	0.00	0	0
1074	2	0.00	0.00	0.00	0.00	1	0.9732208	14.283084	18.00	9	1.100	0.900	18.66	0.00	0	0
1075	2	0.00	0.00	0.00	0.00	1	0.9732208	14.283084	18.00	9	1.100	0.900	18.66	0.00	0	0
1076	2	0.00	0.00	0.00	0.00	1	0.9732208	14.283084	18.00	9	1.100	0.900	18.66	0.00	0	0
1077	2	0.00	0.00	0.00	0.00	1	0.9732208	14.283084	18.00	9	1.100	0.900	18.66	0.00	0	0
1078	2	0.00	0.00	0.00	0.00	1	0.9732208	14.283084	18.00	9	1.100	0.900	18.66	0.00	0	0
1079	2	0.00	0.00	0.00	0.00	1	0.9979168	-3.081369	500.00	9	1.100	0.900	18.66	0.00	0	0
1080	2	0.00	0.00	0.00	0.00	1	0.9732208	14.283084	18.00	9	1.100	0.900	18.66	0.00	0	0
1081	2	0.00	0.00	0.00	140.00	1	0.9972378	20.241228	230.00	9	1.100	0.900	18.66	0.00	0	0
1082	2	0.00	0.00	0.00	0.00	1	1.0132294	33.414551	115.00	9	1.100	0.900	18.66	-0.00	0	0
1083	2	19.29	11.32	0.00	26.15	1	1.0138369	36.233481	115.00	9	1.100	0.900	18.66	-0.00	0	0
1084	2	0.00	0.00	0.00	0.00	1	1.0031677	22.558242	115.00	9	1.100	0.900	18.66	-0.00	0	0
1085	2	10.29	6.03	0.00	0.00	1	1.0000001	27.936206	115.00	9	1.100	0.900	18.66	-0.00	0	0
1086	2	19.16	11.24	0.00	30.00	1	1.0184943	28.486842	115.00	9	1.100	0.900	18.66	0.00	0	0
1087	1	0.44	0.26	0.00	50.00	1	1.0278708	23.019859	115.00	9	1.100	0.900	18.66	0.00	0	0
1088	2	0.00	0.00	0.00	0.00	1	1.0000001	35.187864	115.00	9	1.100	0.900	18.66	0.00	0	0
1089	2	19.61	11.50	0.00	0.00	1	1.0000001	30.154768	115.00	9	1.100	0.900	18.66	-0.00	0	0
1090	2	0.00	0.00	0.00	0.00	1	1.0036616	24.416531	115.00	9	1.100	0.900	18.66	0.00	0	0
1091	1	5.61	3.29	0.00	0.00	1	0.9818156	23.942045	161.00	9	1.100	0.900	18.66	-0.00	0	0
2001	1	23.36	13.70	0.00	0.00	2	1.0273710	-29.043945	161.00	11	1.100	0.900	18.66	-0.00	0	0
2002	1	0.00	0.00	0.00	0.00	2	1.0299046	-28.374696	500.00	11	1.100	0.900	18.66	-0.00	0	0
2003	1	0.00	0.00	0.00	0.00	2	1.0296177	-29.015652	161.00	11	1.100	0.900	18.66	-0.00	0	0
2004	2	0.00	0.00	0.00	0.00	2	1.0299046	-28.374696	13.80	11	1.100	0.900	18.66	-0.00	0	0
2005	2	0.00	0.00	0.00	0.00	2	1.0299046	-28.374696	13.80	11	1.100	0.900	18.66	-0.00	0	0
2006	2	0.00	0.00	0.00	0.00	2	1.0299046	-28.374696	13.80	11	1.100	0.900	18.66	-0.00	0	0
2007	1	4.61	2.70	0.00	0.00	2	1.0280732	-28.650768	161.00	11	1.100	0.900	18.66	-0.00	0	0
2008	2	3.89	2.28	0.00	0.00	2	1.0023179	30.351122	161.00	10	1.100	0.900	18.66	-0.00	0	0
2009	1	18.90	11.09	0.00	120.00	2	0.9963551	1.010142	161.00	11	1.100	0.900	18.66	0.00	0	0
2010	2	27.44	16.09	0.00	100.00	2	1.0000001	22.381655	161.00	10	1.100	0.900	18.66	0.00	0	0
2011	2	0.00	0.00	0.00	0.00	2	1.0199973	16.076489	500.00	10	1.100	0.900	18.66	-0.00	0	0
2012	2	0.00	0.00	0.00	0.00	2	0.9963236	22.140028	161.00	10	1.100	0.900	18.66	-0.00	0	0
2013	2	0.00	0.00	0.00	0.00	2	1.0092297	18.604654	18.00	10	1.100	0.900	18.66	-0.00	0	0
2014	1	12.28	7.20	0.00	0.00	2	0.9981018	31.561844	161.00	10	1.100	0.900	18.66	-0.00	0	0
2015	1	2.26	1.33	0.00	0.00	2	1.0024044	-18.961923	161.00	11	1.100	0.900	18.66	-0.00	0	0
2016	2	33.46	19.63	0.00	0.00	2	1.0231631	-31.278716	161.00	11	1.100	0.900	18.66	0.00	0	0
2017	1	0.00	0.00	0.00	-157.63	2	1.0300308	11.169866	500.00	10	1.100	0.900	18.66	-0.00	0	0
2018	1	0.00	0.00	0.00	0.00	2	1.0058330	14.855195	161.00	10	1.100	0.900	18.66	-0.00	0	0
2019	2	0.00	0.00	0.00	0.00	2	1.0300308	11.169866	20.00	10	1.100	0.900	18.66	-0.00	0	0
2020	1	23.17	13.59	0.00	0.00	2	0.9790811	-4.836575	161.00	11	1.100	0.900	18.66	-0.00	0	0
2021	1	0.00	0.00	0.00	0.00	2	1.0350436	-27.832320	500.00	11	1.100	0.900	18.66	-0.00	0	0
2022	1	5.59	3.28	0.00	0.00	2	1.0323251	-28.513629	161.00	11	1.100	0.900	18.66	-0.00	0	0
2023	2	0.00	0.00	0.00	0.00	2	1.0350436	-27.832320	13.80	11	1.100	0.900	18.66	0.00	0	0
2024	2	0.00	0.00	0.00	0.00	2	1.0350436	-27.832320	13.80	11	1.100	0.900	18.66	0.00	0	0
2025	1	19.14	11.23	0.00	0.00	2	0.9775594	-4.920646	161.00	11	1.100	0.900	18.66	-0.00	0	0
2026	1	8.97	5.26	0.00	0.00	2	1.0026077	17.579645	161.00	10	1.100	0.900	18.66	-0.00	0	0
2027	1	1.72	1.01	0.00	0.00	2	1.0286931	-29.173700	161.00	11	1.100	0.900	18.66	-0.00	0	0
2028	1	6.88	4.03	0.00	0.00	2	0.9863856	-4.596851	161.00	11	1.100	0.900	18.66	-0.00	0	0
2029	2	1.55	0.91	0.00	0.00	2	1.0000001	33.057652	161.00	10	1.100	0.900	18.66	-0.00	0	0
2030	1	22.77	13.36	0.00	0.00	2	1.0172869	-29.841421	161.00	11	1.100	0.900	18.66	-0.00	0	0
2031	1	2.78	1.63	0.00	0.00	2	1.0019574	24.777523	161.00	10	1.100	0.900	18.66	-0.00	0	0
2032	1	1.62	0.95	0.00	0.00	2	1.0297141	-28.461681	161.00	11	1.100	0.900	18.66	-0.00	0	0
2033	1	6.56	3.85	0.00	0.00	2	1.0183748	-30.096467	161.00	11	1.100	0.900	18.66	-0.00	0	0
2034	1	2.58	1.51	0.00	0.00	2	1.0256713	-31.167575	161.00	11	1.100	0.900	18.66	-0.00	0	0
2035	2	2.26	1.33	0.00	0.00	2	1.0000001	33.369137	161.00	10	1.100	0.900	18.66	-0.00	0	0
2036	1	20.09	11.78	0.00	0.00	2	0.9808703	-3.504055	161.00	11	1.100	0.900	18.66	-0.00	0	0
2037	1	1.69	0.99	0.00	0.00	2	1.0097135	-18.977608	161.00	11	1.100	0.900	18.66	-0.00	0	0
2038	1	1.26	0.74	0.00	0.00	2	1.0290279	-28.881140	161.00	11	1.100	0.900	18.66	-0.00	0	0
2039	1	2.68	1.58	0.00	0.00	2	0.9927260	-18.115928	161.00	11	1.100	0.900	18.66	-0.00	0	0
2040	1	7.68	4.51	0.00	0.00	2	1.0322670	-28.732634	161.00	11	1.100	0.900	18.66	-0.00	0	0
2041	2	0.00	0.00	0.00	0.00	2	1.0000001	26.236152	161.00	10	1.100	0.900	18.66	-0.00	0	0
2042	2	0.00	0.00	0.00	0.00	2	1.0100001	29.813351	18.00	10	1.100	0.900	18.66	-0.00	0	0
2043	1	2.05	1.20	0.00	0.00	2	1.0245629	-31.225660	161.00	11	1.100	0.900	18.66	-0.00	0	0
2044	1	13.24	7.76	0.00	0.00	2	1.0075180	-24.129498	161.00	11	1.100	0.900	18.66	-0.00	0	0
2045	1	10.92	6.40	0.00	0.00	2	0.9802394	-4.813346	161.00	11	1.100	0.900	18.66	-0.00	0	0
2046	1	10.69	6.27	0.00	0.00	2	1.0270701	-31.079013	161.00	11	1.100	0.900	18.66	-0.00	0	0
2047	1	7.22	4.24	0.00	0.00	2	1.0291096	-29.398063	161.00	11	1.100	0.900	18.66	-0.00	0	0
2048	2	3.10	1.82	0.00	0.00	2	1.0000001	25.627784	161.00	10	1.100	0.900	18.66	-0.00	0	0
2049	2	5.59	3.28	0.00	0.00	2	1.0000001	9.963677	161.00	10	1.100	0.900	18.66	-0.00	0	0
2050	1	1.77	1.04	0.00	0.00	2	1.0238351	-29.906717	161.00	11	1.100	0.900	18.66	-0.00	0	0
2051	2	8.62	5.06	0.00	0.00	2	1.0000001	-9.427014	161.00	11	1.100	0.900	18.66	-0.00	0	0
2052	1	12.00	7.04	0.00	0.00	2	0.9943447	26.118068	161.00	10	1.100	0.900	18.66	-0.00	0	0
2053	1	14.07	8.25	0.00	0.00	2	0.9931386	-20.573759	161.00	11	1.100	0.900	18.66	-0.00	0	0
2054	1	0.00	0.00	0.00	0.00	2	0.9816097	-5.634742	500.00	11	1.100	0.900	18.66	-0.00	0	0
2055	1	23.97	14.06	0.00	0.00	2	0.9787890	-4.776514	161.00	11	1.100	0.900	18.66	-0.00	0	0
2056	2	0.00	0.00	0.00	0.00	2	0.9816097	-5.634742	18.00	11	1.100	0.900	18.66	-0.00	0	0
2057	2	0.00	0.00	0.00	0.00	2	0.9900001	-5.384850	18.00	11	1.100	0.900	18.66	-0.00	0	0
2058	1	0.00	0.00	0.00	0.00	2	1.0009802	25.032501	161.00	10	1.100	0.900	18.66	-0.00	0	0
2059	2	0.00	0.00	0.00	0.00	2	1.0000001	28.505406	13.80	10	1.100	0.900	18.66	-0.00	0	0
2060	1	1.83	1.08	0.00	0.00	2	1.0247946	-29.450444	161.00	11	1.100	0.900	18.66	-0.00	0	0
2061	1	0.00	0.00	0.00	0.00	2	1.0012214	15.028613	161.00	10	1.100	0.900	18.66	-0.00	0	0
2062	2	0.00	0.00	0.00	0.00	2	1.0136722	17.355414	18.00	10	1.100	0.900	18.66	0.00	0	0
2063	1	31.69	18.59	0.00	40.00	2	1.0298184	-30.876391	161.00	11	1.100	0.900	18.66	-0.00	0	0
2064	1	4.85	2.85	0.00	0.00	2	1.0284247	-28.994027	161.00	11	1.100	0.900	18.66	-0.00	0	0
2065	2	37.85	22.20	0.00	100.00	2	1.0052888	-20.818540	161.00	11	1.100	0.900	18.66	0.00	0	0
2066	1	3.44	2.02	0.00	0.00	2	0.9846956	23.895285	161.00	10	1.100	0.900	18.66	-0.00	0	0
2067	1	26.07	15.29	0.00	0.00	2	0.9780210	-4.979164	161.00	11	1.100	0.900	18.66	-0.00	0	0
2068	1	2.78	1.63	0.00	0.00	2	0.9909490	-4.392048	161.00	11	1.100	0.900	18.66	-0.00	0	0
2069	1	10.59	6.21	0.00	69.00	2	1.0300001	-30.884885	161.00	11	1.100	0.900	18.66	0.00	0	0
2070	1	0.00	0.00	0.00	0.00	2	0.9941854	-4.541877	161.00	11	1.100	0.900	18.66	-0.00	0	0
2071	2	0.00	0.00	0.00	0.00	2	1.0000001	-0.846924	18.00	11	1.100	0.900	18.66	0.00	0	0
2072	1	4.69	2.75	0.00	0.00	2	1.0259739	-29.937991	161.00	11	1.100	0.900	18.66	0.00	0	0
2073	1	0.00	0.00	0.00	0.00	2	0.9906368	16.682428	161.00	10	1.100	0.900	18.66	-0.00	0	0
2074	1	0.00	0.00	0.00	0.00	2	0.9929756	19.573051	115.00	10	1.100	0.900	18.66	-0.00	0	0
2075	1	0.00	0.00	0.00	0.00	2	0.9929756	19.573051	115.00	10	1.100	0.900	18.66	-0.00	0	0
2076	2	0.00	0.00	0.00	0.00	2	0.9960242	17.634995	24.00	10	1.100	0.900	18.66	-0.00	0	0
2077	1	0.00	0.00	0.00	0.00	2	1.0162807	-16.556994	161.00	11	1.100	0.900	18.66	-0.00	0	0
2078	2	0.00	0.00	0.00	0.00	2	1.0200001	-13.231539	13.80	11	1.100	0.900	18.66	0.00	0	0
2079	1	2.16	1.27	0.00	0.00	2	1.0014173	23.625313	161.00	10	1.100	0.900	18.66	-0.00	0	0
2080	1	8.18	4.80	0.00	0.00	2	1.0003592	-13.134714	161.00	11	1.100	0.900	18.66	-0.00	0	0
2081	2	2.16	1.26	0.00	0.00	2	1.0277611	-28.608518	161.00	11	1.100	0.900	18.66	-0.00	0	0
2082	1	28.51	16.73	0.00	0.00	2	0.9845183	-2.072586	161.00	11	1.100	0.900	18.66	-0.00	0	0
2083	2	0.00	0.00	0.00	0.00	2	0.9845183	-2.072586	20.00	11	1.100	0.900	18.66	0.00	0	0
2084	2	0.00	0.00	0.00	0.00	2	0.9845183	-2.072586	20.00	11	1.100	0.900	18.66	-0.00	0	0
2085	2	0.00	0.00	0.00	0.00	2	0.9845183	-2.072586	20.00	11	1.100	0.900	18.66	-0.00	0	0
2086	1	1.06	0.62	0.00	0.00	2	0.9950964	-16.197398	161.00	11	1.100	0.900	18.66	-0.00	0	0
2087	2	3.81	2.24	0.00	0.00	2	1.0014036	24.217981	161.00	10	1.100	0.900	18.66	-0.00	0	0
2088	1	0.00	0.00	0.00	0.00	2	0.9927512	-4.300661	161.00	11	1.100	0.900	18.66	-0.00	0	0
2089	2	0.00	0.00	0.00	0.00	2	1.0000001	-0.680009	24.00	11	1.100	0.900	18.66	0.00	0	0
2090	1	1.17	0.69	0.00	0.00	2	1.0300592	-29.323109	161.00	11	1.100	0.900	18.66	-0.00	0	0
2091	2	8.23	4.83	0.00	0.00	2	1.0000001	30.710057	161.00	10	1.100	0.900	18.66	-0.00	0	0
2092	1	11.64	6.83	0.00	0.00	2	1.0285140	-30.172695	161.00	11	1.100	0.900	18.66	-0.00	0	0
2093	2	0.00	0.00	0.00	0.00	2	1.0000001	19.007561	161.00	10	1.100	0.900	18.66	-0.00	0	0
2094	2	0.00	0.00	0.00	0.00	2	1.0000001	19.444216	13.80	10	1.100	0.900	18.66	-0.00	0	0
2095	2	0.00	0.00	0.00	0.00	2	1.0000001	19.223163	13.80	10	1.100	0.900	18.66	-0.00	0	0
2096	1	0.00	0.00	0.00	0.00	2	1.0213311	10.629079	500.00	10	1.100	0.900	18.66	-0.00	0	0
2097	1	0.00	0.00	0.00	0.00	2	1.0104351	13.334801	230.00	10	1.100	0.900	18.66	-0.00	0	0
2098	1	0.00	0.00	0.00	0.00	2	0.9789676	22.218641	161.00	10	1.100	0.900	18.66	-0.00	0	0
2099	2	0.00	0.00	0.00	0.00	2	1.0208595	10.772620	18.00	10	1.100	0.900	18.66	-0.00	0	0
2100	2	0.00	0.00	0.00	0.00	2	1.0200001	13.251441	18.00	10	1.100	0.900	18.66	-0.00	0	0
2101	1	0.00	0.00	0.00	0.00	2	1.0265552	-28.418022	500.00	11	1.100	0.900	18.66	-0.00	0	0
2102	1	0.00	0.00	0.00	0.00	2	1.0211684	-28.374527	161.00	11	1.100	0.900	18.66	-0.00	0	0
2103	2	0.00	0.00	0.00	0.00	2	1.0265552	-28.418022	20.00	11	1.100	0.900	18.66	-0.00	0	0
2104	2	0.00	0.00	0.00	0.00	2	1.0265552	-28.418022	20.00	11	1.100	0.900	18.66	-0.00	0	0
2105	2	0.00	0.00	0.00	0.00	2	1.0265552	-28.418022	20.00	11	1.100	0.900	18.66	-0.00	0	0
2106	1	6.96	4.08	0.00	0.00	2	1.0160044	-30.211495	161.00	11	1.100	0.900	18.66	-0.00	0	0
2107	1	35.81	21.01	0.00	0.00	2	1.0169718	-28.623189	161.00	11	1.100	0.900	18.66	-0.00	0	0
2108	1	1.04	0.61	0.00	0.00	2	0.9958194	8.467025	161.00	10	1.100	0.900	18.66	0.00	0	0
2109	2	16.33	9.58	0.00	0.00	2	1.0000001	-0.850382	161.00	11	1.100	0.900	18.66	-0.00	0	0
...
];

%% generator data 
mpc.gen = [
1004	158.25	19.37	44.94	-30.38	1.0100	253.20	1	158.25	158.25	0.00	0.00	0.00	0.00	0.00	0.00	0	0	0	0	211.0000	0	0	0	0
1006	25.73	1.78	7.31	-4.94	1.0000	41.16	1	25.73	25.73	0.00	0.00	0.00	0.00	0.00	0.00	0	0	0	0	34.3000	0	0	0	0
1007	144.40	0.00	0.00	0.00	1.0000	601.65	1	144.40	144.40	0.00	0.00	0.00	0.00	0.00	0.00	0	0	0	0	0.0000	0	0	0	0
1009	61.87	-11.88	17.57	-11.88	1.0000	99.00	1	61.87	61.87	0.00	0.00	0.00	0.00	0.00	0.00	0	0	0	0	82.5000	0	0	0	0
1011	10.00	0.00	0.00	0.00	1.0000	12.00	1	10.00	10.00	0.00	0.00	0.00	0.00	0.00	0.00	0	0	0	0	10.0000	0	0	0	0
1016	292.98	-45.40	381.18	-381.18	1.0000	1220.75	1	292.98	292.98	0.00	0.00	0.00	0.00	0.00	0.00	0	0	0	0	0.0000	0	0	0	0
1016	90.00	-45.40	117.09	-117.09	1.0000	375.00	1	90.00	90.00	0.00	0.00	0.00	0.00	0.00	0.00	0	0	0	0	0.0000	0	0	0	0
1021	149.63	-2.33	42.49	-28.73	1.0000	239.40	1	149.63	149.63	0.00	0.00	0.00	0.00	0.00	0.00	0	0	0	0	199.5000	0	0	0	0
1022	79.86	0.00	0.00	0.00	1.0000	332.75	1	79.86	79.86	0.00	0.00	0.00	0.00	0.00	0.00	0	0	0	0	0.0000	0	0	0	0
1023	135.00	18.42	38.34	-25.92	1.0100	216.00	1	135.00	135.00	0.00	0.00	0.00	0.00	0.00	0.00	0	0	0	0	180.0000	0	0	0	0
1023	79.86	0.00	0.00	0.00	1.0100	332.75	1	79.86	79.86	0.00	0.00	0.00	0.00	0.00	0.00	0	0	0	0	0.0000	0	0	0	0
1026	93.15	1.60	26.45	-17.88	1.0000	149.04	1	93.15	93.15	0.00	0.00	0.00	0.00	0.00	0.00	0	0	0	0	124.2000	0	0	0	0
1027	1.08	-1.41	1.41	-1.41	1.0000	4.50	1	1.08	1.08	0.00	0.00	0.00	0.00	0.00	0.00	0	0	0	0	0.0000	0	0	0	0
1028	169.17	-52.27	220.10	-220.10	1.0000	704.88	1	169.17	169.17	0.00	0.00	0.00	0.00	0.00	0.00	0	0	0	0	0.0000	0	0	0	0
1029	42.09	-21.53	54.76	-54.76	1.0000	175.38	1	42.09	42.09	0.00	0.00	0.00	0.00	0.00	0.00	0	0	0	0	0.0000	0	0	0	0
1030	15.00	0.00	0.00	0.00	1.0000	62.50	1	15.00	15.00	0.00	0.00	0.00	0.00	0.00	0.00	0	0	0	0	0.0000	0	0	0	0
1032	139.43	0.00	0.00	0.00	1.0000	580.94	1	139.43	139.43	0.00	0.00	0.00	0.00	0.00	0.00	0	0	0	0	0.0000	0	0	0	0
1033	208.50	53.32	59.21	-40.03	1.0000	333.60	1	208.50	208.50	0.00	0.00	0.00	0.00	0.00	0.00	0	0	0	0	278.0000	0	0	0	0
1033	139.43	0.00	0.00	0.00	1.0000	580.94	1	139.43	139.43	0.00	0.00	0.00	0.00	0.00	0.00	0	0	0	0	0.0000	0	0	0	0
1035	67.50	-4.81	19.17	-12.96	1.0000	108.00	1	67.50	67.50	0.00	0.00	0.00	0.00	0.00	0.00	0	0	0	0	90.0000	0	0	0	0
1036	78.60	0.00	0.00	0.00	1.0000	327.50	1	78.60	78.60	0.00	0.00	0.00	0.00	0.00	0.00	0	0	0	0	0.0000	0	0	0	0
1037	54.00	0.00	0.00	0.00	1.0000	225.00	1	54.00	54.00	0.00	0.00	0.00	0.00	0.00	0.00	0	0	0	0	0.0000	0	0	0	0
1039	110.63	-21.24	31.42	-21.24	1.0000	177.00	1	110.63	110.63	0.00	0.00	0.00	0.00	0.00	0.00	0	0	0	0	147.5000	0	0	0	0
1040	48.21	-26.83	62.72	-62.72	1.0000	200.88	1	48.21	48.21	0.00	0.00	0.00	0.00	0.00	0.00	0	0	0	0	0.0000	0	0	0	0
1040	325.17	0.00	0.00	0.00	1.0000	1354.88	1	325.17	325.17	0.00	0.00	0.00	0.00	0.00	0.00	0	0	0	0	0.0000	0	0	0	0
1042	0.00	0.00	25.96	-17.55	1.0000	146.28	0	121.90	36.57	0.00	0.00	0.00	0.00	0.00	0.00	0	0	0	0	121.9000	0	0	0	0
1043	44.10	-6.09	12.52	-8.47	1.0000	70.56	1	44.10	44.10	0.00	0.00	0.00	0.00	0.00	0.00	0	0	0	0	58.8000	0	0	0	0
1044	90.72	-3.50	118.03	-118.03	1.0000	378.00	1	90.72	90.72	0.00	0.00	0.00	0.00	0.00	0.00	0	0	0	0	0.0000	0	0	0	0
1046	457.35	-112.46	595.03	-595.03	1.0000	1905.63	1	457.35	457.35	0.00	0.00	0.00	0.00	0.00	0.00	0	0	0	0	0.0000	0	0	0	0
1048	0.00	0.00	165.53	-36.10	1.0000	390.24	0	325.20	97.56	0.00	0.00	0.00	0.00	0.00	0.00	0	0	0	0	325.2000	0	0	0	0
1049	0.00	0.00	165.53	-36.10	1.0000	390.24	0	325.20	97.56	0.00	0.00	0.00	0.00	0.00	0.00	0	0	0	0	325.2000	0	0	0	0
1050	41.64	15.46	45.50	-9.92	1.0000	107.28	1	89.40	0.00	0.00	0.00	0.00	0.00	0.00	0.00	0	0	0	0	89.4000	0	0	0	0
1051	0.00	0.00	45.50	-9.92	1.0000	107.28	0	89.40	26.82	0.00	0.00	0.00	0.00	0.00	0.00	0	0	0	0	89.4000	0	0	0	0
1052	0.00	0.00	45.50	-9.92	1.0000	107.28	0	89.40	26.82	0.00	0.00	0.00	0.00	0.00	0.00	0	0	0	0	89.4000	0	0	0	0
1053	0.00	0.00	91.01	-19.85	1.0000	214.56	0	178.80	53.64	0.00	0.00	0.00	0.00	0.00	0.00	0	0	0	0	178.8000	0	0	0	0
1055	74.22	0.53	96.56	-96.56	1.0000	309.25	1	74.22	74.22	0.00	0.00	0.00	0.00	0.00	0.00	0	0	0	0	0.0000	0	0	0	0
1057	0.00	0.00	25.56	-17.28	1.0000	144.00	0	120.00	36.00	0.00	0.00	0.00	0.00	0.00	0.00	0	0	0	0	120.0000	0	0	0	0
1059	0.00	0.00	2.85	-0.62	1.0400	6.72	0	5.60	1.68	0.00	0.00	0.00	0.00	0.00	0.00	0	0	0	0	5.6000	0	0	0	0
1060	0.00	0.00	1.02	-0.22	1.0400	2.40	0	2.00	0.60	0.00	0.00	0.00	0.00	0.00	0.00	0	0	0	0	2.0000	0	0	0	0
1061	35.00	-30.63	45.54	-45.54	1.0000	145.83	1	35.00	35.00	0.00	0.00	0.00	0.00	0.00	0.00	0	0	0	0	0.0000	0	0	0	0
1062	0.00	0.00	0.00	0.00	1.0100	1.80	0	1.50	0.45	0.00	0.00	0.00	0.00	0.00	0.00	0	0	0	0	1.5000	0	0	0	0
1062	35.00	8.36	45.54	-45.54	1.0100	145.83	1	35.00	35.00	0.00	0.00	0.00	0.00	0.00	0.00	0	0	0	0	0.0000	0	0	0	0
1063	0.00	0.00	0.00	0.00	1.0100	276.00	0	230.00	69.00	0.00	0.00	0.00	0.00	0.00	0.00	0	0	0	0	230.0000	0	0	0	0
1063	35.00	8.41	45.54	-45.54	1.0100	145.83	1	35.00	35.00	0.00	0.00	0.00	0.00	0.00	0.00	0	0	0	0	0.0000	0	0	0	0
1066	106.88	-10.15	30.35	-20.52	1.0000	171.00	1	106.88	106.88	0.00	0.00	0.00	0.00	0.00	0.00	0	0	0	0	142.5000	0	0	0	0
1070	120.38	34.19	34.19	-23.11	1.0400	192.60	1	120.38	120.38	0.00	0.00	0.00	0.00	0.00	0.00	0	0	0	0	160.5000	0	0	0	0
1072	74.55	83.32	97.80	-21.33	1.0100	230.56	1	192.13	0.00	0.00	0.00	0.00	0.00	0.00	0.00	0	0	0	0	192.1300	0	0	0	0
1073	74.55	51.43	97.80	-21.33	1.0100	230.56	1	192.13	0.00	0.00	0.00	0.00	0.00	0.00	0.00	0	0	0	0	192.1300	0	0	0	0
1074	0.00	0.00	97.80	-21.33	1.0100	230.56	0	192.13	57.64	0.00	0.00	0.00	0.00	0.00	0.00	0	0	0	0	192.1300	0	0	0	0
1075	0.00	0.00	97.80	-21.33	1.0100	230.56	0	192.13	57.64	0.00	0.00	0.00	0.00	0.00	0.00	0	0	0	0	192.1300	0	0	0	0
1076	0.00	0.00	97.80	-21.33	1.0100	230.56	0	192.13	57.64	0.00	0.00	0.00	0.00	0.00	0.00	0	0	0	0	192.1300	0	0	0	0
1077	0.00	0.00	97.80	-21.33	1.0100	230.56	0	192.13	57.64	0.00	0.00	0.00	0.00	0.00	0.00	0	0	0	0	192.1300	0	0	0	0
1078	0.00	0.00	48.61	-10.60	1.0100	114.60	0	95.50	28.65	0.00	0.00	0.00	0.00	0.00	0.00	0	0	0	0	95.5000	0	0	0	0
1079	0.00	0.00	48.61	-10.60	1.0100	114.60	0	95.50	28.65	0.00	0.00	0.00	0.00	0.00	0.00	0	0	0	0	95.5000	0	0	0	0
1080	0.00	0.00	48.61	-10.60	1.0100	114.60	0	95.50	28.65	0.00	0.00	0.00	0.00	0.00	0.00	0	0	0	0	95.5000	0	0	0	0
1081	0.00	0.00	145.83	-31.80	1.0100	343.80	0	286.50	85.95	0.00	0.00	0.00	0.00	0.00	0.00	0	0	0	0	286.5000	0	0	0	0
1082	112.50	-21.60	31.95	-21.60	1.0000	180.00	1	112.50	112.50	0.00	0.00	0.00	0.00	0.00	0.00	0	0	0	0	150.0000	0	0	0	0
1083	57.51	-74.82	74.82	-74.82	1.0000	239.63	1	57.51	57.51	0.00	0.00	0.00	0.00	0.00	0.00	0	0	0	0	0.0000	0	0	0	0
1083	478.70	0.00	0.00	0.00	1.0000	1994.56	1	478.70	478.70	0.00	0.00	0.00	0.00	0.00	0.00	0	0	0	0	0.0000	0	0	0	0
1084	86.62	24.60	24.60	-16.63	1.0400	138.60	1	86.62	86.62	0.00	0.00	0.00	0.00	0.00	0.00	0	0	0	0	115.5000	0	0	0	0
1085	45.78	-11.70	59.56	-59.56	1.0000	190.75	1	45.78	45.78	0.00	0.00	0.00	0.00	0.00	0.00	0	0	0	0	0.0000	0	0	0	0
1085	75.90	0.00	0.00	0.00	1.0000	316.24	1	75.90	75.90	0.00	0.00	0.00	0.00	0.00	0.00	0	0	0	0	0.0000	0	0	0	0
1086	30.00	0.00	0.00	0.00	1.0000	125.00	1	30.00	30.00	0.00	0.00	0.00	0.00	0.00	0.00	0	0	0	0	0.0000	0	0	0	0
1088	56.25	2.49	15.97	-10.80	1.0000	90.00	1	56.25	56.25	0.00	0.00	0.00	0.00	0.00	0.00	0	0	0	0	75.0000	0	0	0	0
1089	63.36	-27.14	82.43	-82.43	1.0000	264.00	1	63.36	63.36	0.00	0.00	0.00	0.00	0.00	0.00	0	0	0	0	0.0000	0	0	0	0
1089	45.48	0.00	0.00	0.00	1.0000	189.50	1	45.48	45.48	0.00	0.00	0.00	0.00	0.00	0.00	0	0	0	0	0.0000	0	0	0	0
1090	48.93	32.48	32.48	-21.96	1.0200	183.00	1	152.50	45.75	0.00	0.00	0.00	0.00	0.00	0.00	0	0	0	0	152.5000	0	0	0	0
1090	11.55	7.67	7.67	-5.18	1.0200	43.20	1	36.00	10.80	0.00	0.00	0.00	0.00	0.00	0.00	0	0	0	0	36.0000	0	0	0	0
2004	0.00	0.00	199.43	-43.49	1.0200	470.16	0	391.80	117.54	0.00	0.00	0.00	0.00	0.00	0.00	0	0	0	0	391.8000	0	0	0	0
2005	0.00	0.00	199.43	-43.49	1.0200	470.16	0	391.80	117.54	0.00	0.00	0.00	0.00	0.00	0.00	0	0	0	0	391.8000	0	0	0	0
2006	0.00	0.00	199.43	-43.49	1.0200	470.16	0	391.80	117.54	0.00	0.00	0.00	0.00	0.00	0.00	0	0	0	0	391.8000	0	0	0	0
2008	72.00	0.00	0.00	0.00	1.0000	300.00	1	72.00	72.00	0.00	0.00	0.00	0.00	0.00	0.00	0	0	0	0	0.0000	0	0	0	0
2010	105.09	-88.38	136.73	-136.73	1.0000	437.88	1	105.09	105.09	0.00	0.00	0.00	0.00	0.00	0.00	0	0	0	0	0.0000	0	0	0	0
2011	5.75	-7.48	7.48	-7.48	1.0000	23.96	1	5.75	5.75	0.00	0.00	0.00	0.00	0.00	0.00	0	0	0	0	0.0000	0	0	0	0
2012	5.75	7.48	7.48	7.48	0.9963	23.96	1	5.75	5.75	0.00	0.00	0.00	0.00	0.00	0.00	0	0	0	0	0.0000	0	0	0	0
2013	150.45	-28.89	42.73	-28.89	1.0000	240.72	1	150.45	150.45	0.00	0.00	0.00	0.00	0.00	0.00	0	0	0	0	200.6000	0	0	0	0
2013	5.75	-7.48	7.48	-7.48	1.0000	23.96	1	5.75	5.75	0.00	0.00	0.00	0.00	0.00	0.00	0	0	0	0	0.0000	0	0	0	0
2016	6.09	0.00	0.00	0.00	1.0000	25.38	1	6.09	6.09	0.00	0.00	0.00	0.00	0.00	0.00	0	0	0	0	0.0000	0	0	0	0
2019	0.00	0.00	46.43	-31.39	1.0400	261.60	0	218.00	65.40	0.00	0.00	0.00	0.00	0.00	0.00	0	0	0	0	218.0000	0	0	0	0
2023	0.00	0.00	42.42	-9.25	1.0200	100.00	0	83.33	25.00	0.00	0.00	0.00	0.00	0.00	0.00	0	0	0	0	83.3300	0	0	0	0
2024	0.00	0.00	84.83	-18.50	1.0200	200.00	0	166.67	0.00	0.00	0.00	0.00	0.00	0.00	0.00	0	0	0	0	166.6700	0	0	0	0
2029	44.97	-19.37	58.51	-58.51	1.0000	187.38	1	44.97	44.97	0.00	0.00	0.00	0.00	0.00	0.00	0	0	0	0	0.0000	0	0	0	0
2029	288.51	-19.37	375.36	-375.36	1.0000	1202.13	1	288.51	288.51	0.00	0.00	0.00	0.00	0.00	0.00	0	0	0	0	0.0000	0	0	0	0
2029	150.60	0.00	0.00	0.00	1.0000	627.50	1	150.60	150.60	0.00	0.00	0.00	0.00	0.00	0.00	0	0	0	0	0.0000	0	0	0	0
2035	241.32	-8.86	313.97	-313.97	1.0000	1005.50	1	241.32	241.32	0.00	0.00	0.00	0.00	0.00	0.00	0	0	0	0	0.0000	0	0	0	0
2041	63.02	-31.73	81.99	-81.99	1.0000	262.56	1	63.02	63.02	0.00	0.00	0.00	0.00	0.00	0.00	0	0	0	0	0.0000	0	0	0	0
2041	84.76	-31.73	110.28	-110.28	1.0000	353.19	1	84.76	84.76	0.00	0.00	0.00	0.00	0.00	0.00	0	0	0	0	0.0000	0	0	0	0
2041	34.56	-31.73	44.96	-44.96	1.0000	144.00	1	34.56	34.56	0.00	0.00	0.00	0.00	0.00	0.00	0	0	0	0	0.0000	0	0	0	0
2042	59.70	9.87	16.95	-11.46	1.0100	95.52	1	59.70	59.70	0.00	0.00	0.00	0.00	0.00	0.00	0	0	0	0	79.6000	0	0	0	0
2042	63.02	9.87	81.99	-81.99	1.0100	262.56	1	63.02	63.02	0.00	0.00	0.00	0.00	0.00	0.00	0	0	0	0	0.0000	0	0	0	0
2042	84.76	9.87	110.28	-110.28	1.0100	353.19	1	84.76	84.76	0.00	0.00	0.00	0.00	0.00	0.00	0	0	0	0	0.0000	0	0	0	0
2042	34.56	9.87	44.96	-44.96	1.0100	144.00	1	34.56	34.56	0.00	0.00	0.00	0.00	0.00	0.00	0	0	0	0	0.0000	0	0	0	0
2048	74.19	-5.16	96.52	-96.52	1.0000	309.13	1	74.19	74.19	0.00	0.00	0.00	0.00	0.00	0.00	0	0	0	0	0.0000	0	0	0	0
2049	326.97	16.44	425.40	-425.40	1.0000	1362.38	1	326.97	326.97	0.00	0.00	0.00	0.00	0.00	0.00	0	0	0	0	0.0000	0	0	0	0
2051	61.23	21.63	79.66	-79.66	1.0000	255.13	1	61.23	61.23	0.00	0.00	0.00	0.00	0.00	0.00	0	0	0	0	0.0000	0	0	0	0
2056	0.00	0.00	2.80	-0.73	0.9900	7.20	0	6.00	1.80	0.00	0.00	0.00	0.00	0.00	0.00	0	0	0	0	6.0000	0	0	0	0
2057	33.26	62.32	335.52	-87.84	0.9900	864.00	1	720.00	0.00	0.00	0.00	0.00	0.00	0.00	0.00	0	0	0	0	720.0000	0	0	0	0
2059	60.00	-2.34	17.04	-11.52	1.0000	96.00	1	60.00	60.00	0.00	0.00	0.00	0.00	0.00	0.00	0	0	0	0	80.0000	0	0	0	0
2062	101.55	28.84	28.84	-19.50	1.0200	162.48	1	101.55	101.55	0.00	0.00	0.00	0.00	0.00	0.00	0	0	0	0	135.4000	0	0	0	0
2065	94.41	-122.83	122.83	-122.83	1.0000	393.38	1	94.41	94.41	0.00	0.00	0.00	0.00	0.00	0.00	0	0	0	0	0.0000	0	0	0	0
2065	19.50	0.00	0.00	0.00	1.0000	81.25	1	19.50	19.50	0.00	0.00	0.00	0.00	0.00	0.00	0	0	0	0	0.0000	0	0	0	0
2071	112.50	11.26	31.95	-21.60	1.0000	180.00	1	112.50	112.50	0.00	0.00	0.00	0.00	0.00	0.00	0	0	0	0	150.0000	0	0	0	0
2076	22.50	6.39	6.39	-4.32	1.0400	36.00	1	22.50	22.50	0.00	0.00	0.00	0.00	0.00	0.00	0	0	0	0	30.0000	0	0	0	0
2078	84.38	5.40	23.96	-16.20	1.0200	135.00	1	84.38	84.38	0.00	0.00	0.00	0.00	0.00	0.00	0	0	0	0	112.5000	0	0	0	0
2081	65.88	0.00	0.00	0.00	1.0000	274.50	1	65.88	65.88	0.00	0.00	0.00	0.00	0.00	0.00	0	0	0	0	0.0000	0	0	0	0
2083	0.00	0.00	10.18	-2.22	1.0200	24.00	0	20.00	6.00	0.00	0.00	0.00	0.00	0.00	0.00	0	0	0	0	20.0000	0	0	0	0
2084	0.00	0.00	10.18	-2.22	1.0200	24.00	0	20.00	6.00	0.00	0.00	0.00	0.00	0.00	0.00	0	0	0	0	20.0000	0	0	0	0
2085	0.00	0.00	20.36	-4.44	1.0200	48.00	0	40.00	12.00	0.00	0.00	0.00	0.00	0.00	0.00	0	0	0	0	40.0000	0	0	0	0
2087	9.00	-11.71	11.71	-11.71	1.0000	37.50	1	9.00	9.00	0.00	0.00	0.00	0.00	0.00	0.00	0	0	0	0	0.0000	0	0	0	0
2087	136.76	0.00	0.00	0.00	1.0000	569.85	1	136.76	136.76	0.00	0.00	0.00	0.00	0.00	0.00	0	0	0	0	0.0000	0	0	0	0
2089	50.70	6.39	14.40	-9.73	1.0000	81.12	1	50.70	50.70	0.00	0.00	0.00	0.00	0.00	0.00	0	0	0	0	67.6000	0	0	0	0
2091	99.06	-13.35	128.88	-128.88	1.0000	412.75	1	99.06	99.06	0.00	0.00	0.00	0.00	0.00	0.00	0	0	0	0	0.0000	0	0	0	0
2093	7.37	-1.74	9.59	-9.59	1.0000	30.71	1	7.37	7.37	0.00	0.00	0.00	0.00	0.00	0.00	0	0	0	0	0.0000	0	0	0	0
2094	0.00	0.00	2.13	-1.44	1.0000	12.00	0	10.00	3.00	0.00	0.00	0.00	0.00	0.00	0.00	0	0	0	0	10.0000	0	0	0	0
2094	7.37	-0.09	9.59	-9.59	1.0000	30.71	1	7.37	7.37	0.00	0.00	0.00	0.00	0.00	0.00	0	0	0	0	0.0000	0	0	0	0
2095	0.00	0.00	16.93	-11.45	1.0000	95.40	0	79.50	23.85	0.00	0.00	0.00	0.00	0.00	0.00	0	0	0	0	79.5000	0	0	0	0
2095	7.37	-0.20	9.59	-9.59	1.0000	30.71	1	7.37	7.37	0.00	0.00	0.00	0.00	0.00	0.00	0	0	0	0	0.0000	0	0	0	0
2099	7.50	-1.44	2.13	-1.44	1.0200	12.00	1	7.50	7.50	0.00	0.00	0.00	0.00	0.00	0.00	0	0	0	0	10.0000	0	0	0	0
2100	112.50	-2.62	31.95	-21.60	1.0200	180.00	1	112.50	112.50	0.00	0.00	0.00	0.00	0.00	0.00	0	0	0	0	150.0000	0	0	0	0
2103	0.00	0.00	136.28	-29.72	1.0000	321.28	0	267.73	80.32	0.00	0.00	0.00	0.00	0.00	0.00	0	0	0	0	267.7300	0	0	0	0
2104	0.00	0.00	136.28	-29.72	1.0000	321.28	0	267.73	80.32	0.00	0.00	0.00	0.00	0.00	0.00	0	0	0	0	267.7300	0	0	0	0
2105	0.00	0.00	136.28	-29.72	1.0000	321.28	0	267.73	80.32	0.00	0.00	0.00	0.00	0.00	0.00	0	0	0	0	267.7300	0	0	0	0
2109	63.06	46.24	82.04	-82.04	1.0000	262.75	1	63.06	63.06	0.00	0.00	0.00	0.00	0.00	0.00	0	0	0	0	0.0000	0	0	0	0
2113	47.63	0.00	0.00	0.00	1.0000	198.48	1	47.63	47.63	0.00	0.00	0.00	0.00	0.00	0.00	0	0	0	0	0.0000	0	0	0	0
2114	47.63	0.00	0.00	0.00	1.0000	198.48	1	47.63	47.63	0.00	0.00	0.00	0.00	0.00	0.00	0	0	0	0	0.0000	0	0	0	0
2115	0.00	0.00	94.02	-20.50	1.0000	221.66	0	184.72	0.00	0.00	0.00	0.00	0.00	0.00	0.00	0	0	0	0	184.7200	0	0	0	0
2115	47.63	0.00	0.00	0.00	1.0000	198.48	1	47.63	47.63	0.00	0.00	0.00	0.00	0.00	0.00	0	0	0	0	0.0000	0	0	0	0
2116	85.99	-20.50	94.02	-20.50	1.0000	221.66	1	184.72	0.00	0.00	0.00	0.00	0.00	0.00	0.00	0	0	0	0	184.7200	0	0	0	0
2116	47.63	0.00	0.00	0.00	1.0000	198.48	1	47.63	47.63	0.00	0.00	0.00	0.00	0.00	0.00	0	0	0	0	0.0000	0	0	0	0
2117	0.00	0.00	94.02	-20.50	1.0000	221.66	0	184.72	55.41	0.00	0.00	0.00	0.00	0.00	0.00	0	0	0	0	184.7200	0	0	0	0
2117	47.63	0.00	0.00	0.00	1.0000	198.48	1	47.63	47.63	0.00	0.00	0.00	0.00	0.00	0.00	0	0	0	0	0.0000	0	0	0	0
2118	0.00	0.00	94.02	-20.50	1.0000	221.66	0	184.72	55.41	0.00	0.00	0.00	0.00	0.00	0.00	0	0	0	0	184.7200	0	0	0	0
2118	47.63	0.00	0.00	0.00	1.0000	198.48	1	47.63	47.63	0.00	0.00	0.00	0.00	0.00	0.00	0	0	0	0	0.0000	0	0	0	0
2119	0.00	0.00	94.02	-20.50	1.0000	221.66	0	184.72	55.41	0.00	0.00	0.00	0.00	0.00	0.00	0	0	0	0	184.7200	0	0	0	0
2119	47.63	0.00	0.00	0.00	1.0000	198.48	1	47.63	47.63	0.00	0.00	0.00	0.00	0.00	0.00	0	0	0	0	0.0000	0	0	0	0
2120	0.00	0.00	94.02	-20.50	1.0100	221.66	0	184.72	55.41	0.00	0.00	0.00	0.00	0.00	0.00	0	0	0	0	184.7200	0	0	0	0
2120	47.63	0.00	0.00	0.00	1.0100	198.48	1	47.63	47.63	0.00	0.00	0.00	0.00	0.00	0.00	0	0	0	0	0.0000	0	0	0	0
2123	136.28	-24.17	38.70	-26.16	1.0000	218.04	1	136.28	136.28	0.00	0.00	0.00	0.00	0.00	0.00	0	0	0	0	181.7000	0	0	0	0
2123	147.33	-24.17	191.68	-191.68	1.0000	613.88	1	147.33	147.33	0.00	0.00	0.00	0.00	0.00	0.00	0	0	0	0	0.0000	0	0	0	0
2127	216.45	43.00	61.47	-41.56	1.0400	346.32	1	216.45	216.45	0.00	0.00	0.00	0.00	0.00	0.00	0	0	0	0	288.6000	0	0	0	0
2130	78.78	-21.54	102.50	-102.50	1.0000	328.25	1	78.78	78.78	0.00	0.00	0.00	0.00	0.00	0.00	0	0	0	0	0.0000	0	0	0	0
2130	34.04	0.00	0.00	0.00	1.0000	141.83	1	34.04	34.04	0.00	0.00	0.00	0.00	0.00	0.00	0	0	0	0	0.0000	0	0	0	0
2131	78.78	-28.62	102.50	-102.50	1.0000	328.25	1	78.78	78.78	0.00	0.00	0.00	0.00	0.00	0.00	0	0	0	0	0.0000	0	0	0	0
2131	34.04	0.00	0.00	0.00	1.0000	141.83	1	34.04	34.04	0.00	0.00	0.00	0.00	0.00	0.00	0	0	0	0	0.0000	0	0	0	0
2132	78.78	-6.20	102.50	-102.50	1.0000	328.25	1	78.78	78.78	0.00	0.00	0.00	0.00	0.00	0.00	0	0	0	0	0.0000	0	0	0	0
2132	34.04	0.00	0.00	0.00	1.0000	141.83	1	34.04	34.04	0.00	0.00	0.00	0.00	0.00	0.00	0	0	0	0	0.0000	0	0	0	0
3004	28.13	-5.40	7.99	-5.40	1.0000	45.00	1	28.13	28.13	0.00	0.00	0.00	0.00	0.00	0.00	0	0	0	0	37.5000	0	0	0	0
3017	127.13	9.28	36.10	-24.41	1.0100	203.40	1	127.13	127.13	0.00	0.00	0.00	0.00	0.00	0.00	0	0	0	0	169.5000	0	0	0	0
3020	112.50	31.95	31.95	-21.60	1.0300	180.00	1	112.50	112.50	0.00	0.00	0.00	0.00	0.00	0.00	0	0	0	0	150.0000	0	0	0	0
3024	59.85	40.05	77.87	-77.87	1.0000	249.38	1	59.85	59.85	0.00	0.00	0.00	0.00	0.00	0.00	0	0	0	0	0.0000	0	0	0	0
3028	150.00	42.60	42.60	-28.80	1.0400	240.00	1	150.00	150.00	0.00	0.00	0.00	0.00	0.00	0.00	0	0	0	0	200.0000	0	0	0	0
3034	97.87	27.80	27.80	-18.79	1.0300	156.60	1	97.87	97.87	0.00	0.00	0.00	0.00	0.00	0.00	0	0	0	0	130.5000	0	0	0	0
3039	156.75	44.52	44.52	-30.10	1.0400	250.80	1	156.75	156.75	0.00	0.00	0.00	0.00	0.00	0.00	0	0	0	0	209.0000	0	0	0	0
3041	22.52	-29.30	29.30	-29.30	1.0000	93.85	1	22.52	22.52	0.00	0.00	0.00	0.00	0.00	0.00	0	0	0	0	0.0000	0	0	0	0
3042	22.52	29.30	29.30	-29.30	1.0000	93.85	1	22.52	22.52	0.00	0.00	0.00	0.00	0.00	0.00	0	0	0	0	0.0000	0	0	0	0
3043	0.00	0.00	0.66	-0.14	1.0400	1.56	0	1.30	0.39	0.00	0.00	0.00	0.00	0.00	0.00	0	0	0	0	1.3000	0	0	0	0
3043	22.52	29.30	29.30	-29.30	1.0400	93.85	1	22.52	22.52	0.00	0.00	0.00	0.00	0.00	0.00	0	0	0	0	0.0000	0	0	0	0
3044	0.00	0.00	45.50	-9.92	1.0400	107.28	0	89.40	26.82	0.00	0.00	0.00	0.00	0.00	0.00	0	0	0	0	89.4000	0	0	0	0
3044	22.52	28.39	29.30	-29.30	1.0400	93.85	1	22.52	22.52	0.00	0.00	0.00	0.00	0.00	0.00	0	0	0	0	0.0000	0	0	0	0
3045	0.00	0.00	227.52	-49.62	1.0400	536.40	0	447.00	134.10	0.00	0.00	0.00	0.00	0.00	0.00	0	0	0	0	447.0000	0	0	0	0
3045	22.52	29.30	29.30	-29.30	1.0400	93.85	1	22.52	22.52	0.00	0.00	0.00	0.00	0.00	0.00	0	0	0	0	0.0000	0	0	0	0
3048	180.75	51.33	51.33	-34.70	1.0400	289.20	1	180.75	180.75	0.00	0.00	0.00	0.00	0.00	0.00	0	0	0	0	241.0000	0	0	0	0
3049	60.48	0.00	0.00	0.00	1.0000	252.00	1	60.48	60.48	0.00	0.00	0.00	0.00	0.00	0.00	0	0	0	0	0.0000	0	0	0	0
3050	22.39	-29.14	29.14	-29.14	1.0000	93.31	1	22.39	22.39	0.00	0.00	0.00	0.00	0.00	0.00	0	0	0	0	0.0000	0	0	0	0
3051	22.39	-29.14	29.14	-29.14	1.0000	93.31	1	22.39	22.39	0.00	0.00	0.00	0.00	0.00	0.00	0	0	0	0	0.0000	0	0	0	0
3055	183.88	52.22	52.22	-35.30	1.0400	294.20	1	183.88	183.88	0.00	0.00	0.00	0.00	0.00	0.00	0	0	0	0	245.1700	0	0	0	0
3056	183.88	42.81	52.22	-35.30	1.0400	294.20	1	183.88	183.88	0.00	0.00	0.00	0.00	0.00	0.00	0	0	0	0	245.1700	0	0	0	0
3057	183.88	42.00	52.22	-35.30	1.0400	294.20	1	183.88	183.88	0.00	0.00	0.00	0.00	0.00	0.00	0	0	0	0	245.1700	0	0	0	0
3060	124.22	35.28	35.28	-23.85	1.0400	198.75	1	124.22	124.22	0.00	0.00	0.00	0.00	0.00	0.00	0	0	0	0	165.6300	0	0	0	0
3061	124.22	35.28	35.28	-23.85	1.0400	198.75	1	124.22	124.22	0.00	0.00	0.00	0.00	0.00	0.00	0	0	0	0	165.6300	0	0	0	0
3062	124.22	35.28	35.28	-23.85	1.0400	198.75	1	124.22	124.22	0.00	0.00	0.00	0.00	0.00	0.00	0	0	0	0	165.6300	0	0	0	0
3063	124.22	35.28	35.28	-23.85	1.0400	198.75	1	124.22	124.22	0.00	0.00	0.00	0.00	0.00	0.00	0	0	0	0	165.6300	0	0	0	0
3065	60.37	-11.59	17.15	-11.59	1.0000	96.60	1	60.37	60.37	0.00	0.00	0.00	0.00	0.00	0.00	0	0	0	0	80.5000	0	0	0	0
3066	101.94	55.89	132.63	-132.63	1.0000	424.75	1	101.94	101.94	0.00	0.00	0.00	0.00	0.00	0.00	0	0	0	0	0.0000	0	0	0	0
3068	112.50	31.95	31.95	-21.60	1.0400	180.00	1	112.50	112.50	0.00	0.00	0.00	0.00	0.00	0.00	0	0	0	0	150.0000	0	0	0	0
3071	127.65	-24.51	36.25	-24.51	1.0000	204.24	1	127.65	127.65	0.00	0.00	0.00	0.00	0.00	0.00	0	0	0	0	170.2000	0	0	0	0
3074	74.85	-14.37	21.26	-14.37	1.0000	119.76	1	74.85	74.85	0.00	0.00	0.00	0.00	0.00	0.00	0	0	0	0	99.8000	0	0	0	0
3075	2.25	0.00	0.00	0.00	1.0000	9.38	1	2.25	2.25	0.00	0.00	0.00	0.00	0.00	0.00	0	0	0	0	0.0000	0	0	0	0
3076	47.79	0.00	0.00	0.00	1.0000	199.13	1	47.79	47.79	0.00	0.00	0.00	0.00	0.00	0.00	0	0	0	0	0.0000	0	0	0	0
3081	186.75	53.04	53.04	-35.86	1.0400	298.80	1	186.75	186.75	0.00	0.00	0.00	0.00	0.00	0.00	0	0	0	0	249.0000	0	0	0	0
3084	174.37	-20.69	49.52	-33.48	1.0000	279.00	1	174.37	174.37	0.00	0.00	0.00	0.00	0.00	0.00	0	0	0	0	232.5000	0	0	0	0
3086	56.25	8.09	15.97	-10.80	1.0000	90.00	1	56.25	56.25	0.00	0.00	0.00	0.00	0.00	0.00	0	0	0	0	75.0000	0	0	0	0
3087	0.00	0.00	15.97	-10.80	1.0000	90.00	0	75.00	22.50	0.00	0.00	0.00	0.00	0.00	0.00	0	0	0	0	75.0000	0	0	0	0
3092	150.00	26.31	42.60	-28.80	1.0400	240.00	1	150.00	150.00	0.00	0.00	0.00	0.00	0.00	0.00	0	0	0	0	200.0000	0	0	0	0
3095	90.45	19.59	25.69	-17.37	1.0400	144.72	1	90.45	90.45	0.00	0.00	0.00	0.00	0.00	0.00	0	0	0	0	120.6000	0	0	0	0
3098	120.00	34.08	34.08	-23.04	1.0400	192.00	1	120.00	120.00	0.00	0.00	0.00	0.00	0.00	0.00	0	0	0	0	160.0000	0	0	0	0
3105	0.00	0.00	17.07	-0.74	1.0000	46.72	0	44.50	0.00	0.00	0.00	0.00	0.00	0.00	0.00	0	0	0	0	15.0000	0	0	0	0
3106	0.00	0.00	62.48	-2.69	1.0000	170.94	0	162.80	0.00	0.00	0.00	0.00	0.00	0.00	0.00	0	0	0	0	54.9000	0	0	0	0
3110	63.00	17.89	17.89	-12.10	1.0400	100.80	1	63.00	63.00	0.00	0.00	0.00	0.00	0.00	0.00	0	0	0	0	84.0000	0	0	0	0
3112	56.10	4.72	15.93	-10.77	1.0000	89.76	1	56.10	56.10	0.00	0.00	0.00	0.00	0.00	0.00	0	0	0	0	74.8000	0	0	0	0
3113	56.10	5.40	15.93	-10.77	1.0000	89.76	1	56.10	56.10	0.00	0.00	0.00	0.00	0.00	0.00	0	0	0	0	74.8000	0	0	0	0
3114	3.00	3.90	3.90	-3.90	1.0000	12.50	1	3.00	3.00	0.00	0.00	0.00	0.00	0.00	0.00	0	0	0	0	0.0000	0	0	0	0
3115	191.73	-70.12	249.45	-249.45	1.0000	798.88	1	191.73	191.73	0.00	0.00	0.00	0.00	0.00	0.00	0	0	0	0	0.0000	0	0	0	0
3117	47.25	-5.22	13.42	-9.07	1.0000	75.60	1	47.25	47.25	0.00	0.00	0.00	0.00	0.00	0.00	0	0	0	0	63.0000	0	0	0	0
3118	90.00	-9.40	25.56	-17.28	1.0000	144.00	1	90.00	90.00	0.00	0.00	0.00	0.00	0.00	0.00	0	0	0	0	120.0000	0	0	0	0
3120	29.70	0.00	0.00	0.00	1.0000	47.52	1	29.70	29.70	0.00	0.00	0.00	0.00	0.00	0.00	0	0	0	0	39.6000	0	0	0	0
3122	147.75	-28.37	41.96	-28.37	1.0000	236.40	1	147.75	147.75	0.00	0.00	0.00	0.00	0.00	0.00	0	0	0	0	197.0000	0	0	0	0
3126	30.00	0.00	0.00	0.00	1.0000	125.00	1	30.00	30.00	0.00	0.00	0.00	0.00	0.00	0.00	0	0	0	0	0.0000	0	0	0	0
3127	101.25	-19.44	28.76	-19.44	1.0000	162.00	1	101.25	101.25	0.00	0.00	0.00	0.00	0.00	0.00	0	0	0	0	135.0000	0	0	0	0
3127	150.06	-121.55	195.23	-195.23	1.0000	625.25	1	150.06	150.06	0.00	0.00	0.00	0.00	0.00	0.00	0	0	0	0	0.0000	0	0	0	0
...
];

%% generator cost data
mpc.gencost = [
2	0	0	4	0.0000	0.000	0.000	0.00
2	0	0	4	0.0000	0.000	0.000	0.00
2	0	0	4	0.0000	0.010	10.000	0.00
2	0	0	4	0.0000	0.000	0.000	0.00
2	0	0	4	0.0000	0.000	0.000	0.00
2	0	0	4	0.0000	0.010	10.000	0.00
2	0	0	4	0.0000	0.010	10.000	0.00
2	0	0	4	0.0000	0.000	0.000	0.00
2	0	0	4	0.0000	0.010	10.000	0.00
2	0	0	4	0.0000	0.000	0.000	0.00
2	0	0	4	0.0000	0.010	10.000	0.00
2	0	0	4	0.0000	0.000	0.000	0.00
2	0	0	4	0.0000	0.010	10.000	0.00
2	0	0	4	0.0000	0.010	10.000	0.00
2	0	0	4	0.0000	0.010	10.000	0.00
2	0	0	4	0.0000	0.010	10.000	0.00
2	0	0	4	0.0000	0.010	10.000	0.00
2	0	0	4	0.0000	0.000	0.000	0.00
2	0	0	4	0.0000	0.010	10.000	0.00
2	0	0	4	0.0000	0.000	0.000	0.00
2	0	0	4	0.0000	0.010	10.000	0.00
2	0	0	4	0.0000	0.010	10.000	0.00
2	0	0	4	0.0000	0.000	0.000	0.00
2	0	0	4	0.0000	0.010	10.000	0.00
2	0	0	4	0.0000	0.010	10.000	0.00
2	0	0	4	0.0000	0.000	0.000	0.00
2	0	0	4	0.0000	0.000	0.000	0.00
2	0	0	4	0.0000	0.010	10.000	0.00
2	0	0	4	0.0000	0.010	10.000	0.00
2	0	0	4	0.0000	0.001	18.641	1087.80
2	0	0	4	0.0000	0.001	18.641	1087.80
2	0	0	4	0.0000	0.001	17.464	734.10
2	0	0	4	0.0000	0.001	17.464	734.10
2	0	0	4	0.0000	0.001	17.464	734.10
2	0	0	4	0.0000	0.001	17.910	868.20
2	0	0	4	0.0000	0.010	10.000	0.00
2	0	0	4	0.0000	0.000	0.000	0.00
2	0	0	4	0.0000	0.001	17.046	608.40
2	0	0	4	0.0000	0.001	17.028	603.00
2	0	0	4	0.0000	0.010	10.000	0.00
2	0	0	4	0.0000	0.000	0.000	0.00
2	0	0	4	0.0000	0.010	10.000	0.00
2	0	0	4	0.0000	0.000	0.000	0.00
2	0	0	4	0.0000	0.010	10.000	0.00
2	0	0	4	0.0000	0.000	0.000	0.00
2	0	0	4	0.0000	0.000	0.000	0.00
2	0	0	4	0.0000	0.001	17.977	888.20
2	0	0	4	0.0000	0.001	17.977	888.20
2	0	0	4	0.0000	0.001	17.977	888.20
2	0	0	4	0.0000	0.001	17.977	888.20
2	0	0	4	0.0000	0.001	17.977	888.20
2	0	0	4	0.0000	0.001	17.977	888.20
2	0	0	4	0.0000	0.001	17.495	743.25
2	0	0	4	0.0000	0.001	17.495	743.25
2	0	0	4	0.0000	0.001	17.495	743.25
2	0	0	4	0.0000	0.001	18.448	1029.75
2	0	0	4	0.0000	0.000	0.000	0.00
2	0	0	4	0.0000	0.010	10.000	0.00
2	0	0	4	0.0000	0.010	10.000	0.00
2	0	0	4	0.0000	0.000	0.000	0.00
2	0	0	4	0.0000	0.010	10.000	0.00
2	0	0	4	0.0000	0.010	10.000	0.00
2	0	0	4	0.0000	0.010	10.000	0.00
2	0	0	4	0.0000	0.000	0.000	0.00
2	0	0	4	0.0000	0.010	10.000	0.00
2	0	0	4	0.0000	0.010	10.000	0.00
2	0	0	4	0.0000	0.000	0.000	0.00
2	0	0	4	0.0000	0.000	0.000	0.00
2	0	0	4	0.0000	0.002	27.494	1187.70
2	0	0	4	0.0000	0.002	27.494	1187.70
2	0	0	4	0.0000	0.002	27.494	1187.70
2	0	0	4	0.0000	0.010	10.000	0.00
2	0	0	4	0.0000	0.010	10.000	0.00
2	0	0	4	0.0000	0.010	10.000	0.00
2	0	0	4	0.0000	0.010	10.000	0.00
2	0	0	4	0.0000	0.000	0.000	0.00
2	0	0	4	0.0000	0.010	10.000	0.00
2	0	0	4	0.0000	0.010	10.000	0.00
2	0	0	4	0.0000	0.000	0.000	0.00
2	0	0	4	0.0000	0.001	16.989	724.99
2	0	0	4	0.0000	0.001	17.394	850.01
2	0	0	4	0.0000	0.010	10.000	0.00
2	0	0	4	0.0000	0.010	10.000	0.00
2	0	0	4	0.0000	0.010	10.000	0.00
2	0	0	4	0.0000	0.010	10.000	0.00
2	0	0	4	0.0000	0.010	10.000	0.00
2	0	0	4	0.0000	0.010	10.000	0.00
2	0	0	4	0.0000	0.010	10.000	0.00
2	0	0	4	0.0000	0.000	0.000	0.00
2	0	0	4	0.0000	0.010	10.000	0.00
2	0	0	4	0.0000	0.010	10.000	0.00
2	0	0	4	0.0000	0.010	10.000	0.00
2	0	0	4	0.0000	0.010	10.000	0.00
2	0	0	4	0.0000	0.010	10.000	0.00
2	0	0	4	0.0000	0.010	10.000	0.00
2	0	0	4	0.0000	0.002	17.268	236.16
2	0	0	4	0.0000	0.002	17.268	1398.51
2	0	0	4	0.0000	0.000	0.000	0.00
2	0	0	4	0.0000	0.000	0.000	0.00
2	0	0	4	0.0000	0.010	10.000	0.00
2	0	0	4	0.0000	0.010	10.000	0.00
2	0	0	4	0.0000	0.000	0.000	0.00
2	0	0	4	0.0000	0.000	0.000	0.00
2	0	0	4	0.0000	0.000	0.000	0.00
2	0	0	4	0.0000	0.010	10.000	0.00
2	0	0	4	0.0000	0.001	16.033	630.00
2	0	0	4	0.0000	0.001	16.033	630.00
2	0	0	4	0.0000	0.001	16.126	660.00
2	0	0	4	0.0000	0.010	10.000	0.00
2	0	0	4	0.0000	0.010	10.000	0.00
2	0	0	4	0.0000	0.000	0.000	0.00
2	0	0	4	0.0000	0.010	10.000	0.00
2	0	0	4	0.0000	0.010	10.000	0.00
2	0	0	4	0.0000	0.000	0.000	0.00
2	0	0	4	0.0000	0.010	10.000	0.00
2	0	0	4	0.0000	0.000	0.000	0.00
2	0	0	4	0.0000	0.010	10.000	0.00
2	0	0	4	0.0000	0.000	0.000	0.00
2	0	0	4	0.0000	0.000	0.000	0.00
2	0	0	4	0.0000	0.002	26.597	1001.59
2	0	0	4	0.0000	0.002	26.597	1001.59
2	0	0	4	0.0000	0.002	26.597	1001.59
2	0	0	4	0.0000	0.010	10.000	0.00
2	0	0	4	0.0000	0.010	10.000	0.00
2	0	0	4	0.0000	0.010	10.000	0.00
2	0	0	4	0.0000	0.001	17.482	877.08
2	0	0	4	0.0000	0.010	10.000	0.00
2	0	0	4	0.0000	0.001	17.482	877.08
2	0	0	4	0.0000	0.010	10.000	0.00
2	0	0	4	0.0000	0.001	17.482	877.08
2	0	0	4	0.0000	0.010	10.000	0.00
2	0	0	4	0.0000	0.001	17.482	877.08
2	0	0	4	0.0000	0.010	10.000	0.00
2	0	0	4	0.0000	0.001	17.482	877.08
2	0	0	4	0.0000	0.010	10.000	0.00
2	0	0	4	0.0000	0.001	17.482	877.08
2	0	0	4	0.0000	0.010	10.000	0.00
2	0	0	4	0.0000	0.000	0.000	0.00
2	0	0	4	0.0000	0.010	10.000	0.00
2	0	0	4	0.0000	0.000	0.000	0.00
2	0	0	4	0.0000	0.010	10.000	0.00
2	0	0	4	0.0000	0.010	10.000	0.00
2	0	0	4	0.0000	0.010	10.000	0.00
2	0	0	4	0.0000	0.010	10.000	0.00
2	0	0	4	0.0000	0.010	10.000	0.00
2	0	0	4	0.0000	0.010	10.000	0.00
2	0	0	4	0.0000	0.000	0.000	0.00
2	0	0	4	0.0000	0.000	0.000	0.00
2	0	0	4	0.0000	0.000	0.000	0.00
2	0	0	4	0.0000	0.010	10.000	0.00
2	0	0	4	0.0000	0.000	0.000	0.00
2	0	0	4	0.0000	0.000	0.000	0.00
2	0	0	4	0.0000	0.000	0.000	0.00
2	0	0	4	0.0000	0.010	10.000	0.00
2	0	0	4	0.0000	0.010	10.000	0.00
2	0	0	4	0.0000	0.002	19.197	601.95
2	0	0	4	0.0000	0.010	10.000	0.00
2	0	0	4	0.0000	0.002	19.693	734.10
2	0	0	4	0.0000	0.010	10.000	0.00
2	0	0	4	0.0000	0.002	21.704	1365.86
2	0	0	4	0.0000	0.010	10.000	0.00
2	0	0	4	0.0000	0.000	0.000	0.00
2	0	0	4	0.0000	0.010	10.000	0.00
2	0	0	4	0.0000	0.010	10.000	0.00
2	0	0	4	0.0000	0.010	10.000	0.00
2	0	0	4	0.0000	0.000	0.000	0.00
2	0	0	4	0.0000	0.000	0.000	0.00
2	0	0	4	0.0000	0.000	0.000	0.00
2	0	0	4	0.0000	0.000	0.000	0.00
2	0	0	4	0.0000	0.000	0.000	0.00
2	0	0	4	0.0000	0.000	0.000	0.00
2	0	0	4	0.0000	0.000	0.000	0.00
2	0	0	4	0.0000	0.000	0.000	0.00
2	0	0	4	0.0000	0.010	10.000	0.00
2	0	0	4	0.0000	0.000	0.000	0.00
2	0	0	4	0.0000	0.000	0.000	0.00
2	0	0	4	0.0000	0.000	0.000	0.00
2	0	0	4	0.0000	0.010	10.000	0.00
2	0	0	4	0.0000	0.010	10.000	0.00
2	0	0	4	0.0000	0.000	0.000	0.00
2	0	0	4	0.0000	0.000	0.000	0.00
2	0	0	4	0.0000	0.000	0.000	0.00
2	0	0	4	0.0000	0.000	0.000	0.00
2	0	0	4	0.0000	0.000	0.000	0.00
2	0	0	4	0.0000	0.000	0.000	0.00
2	0	0	4	0.0000	0.000	0.000	0.00
2	0	0	4	0.0000	0.000	0.000	0.00
2	0	0	4	0.0000	0.000	0.000	0.00
2	0	0	4	0.0000	0.000	0.000	0.00
2	0	0	4	0.0000	0.000	0.000	0.00
2	0	0	4	0.0000	0.000	0.000	0.00
2	0	0	4	0.0000	0.010	10.000	0.00
2	0	0	4	0.0000	0.010	10.000	0.00
2	0	0	4	0.0000	0.000	0.000	0.00
2	0	0	4	0.0000	0.000	0.000	0.00
2	0	0	4	0.0000	0.000	0.000	0.00
2	0	0	4	0.0000	0.000	0.000	0.00
2	0	0	4	0.0000	0.010	10.000	0.00
2	0	0	4	0.0000	0.000	0.000	0.00
2	0	0	4	0.0000	0.010	10.000	0.00
...
];

%% branch data
mpc.branch = [
1001	1064	0.005240	0.035800	0.00609	221.00	0.00	0.00	0.00000	0.000	1	0.00	0.00	-14.46	12.28	14.48	-12.71	0	0	0	0
1001	1064	0.005240	0.035800	0.00609	221.00	0.00	0.00	0.00000	0.000	1	0.00	0.00	-14.46	12.28	14.48	-12.71	0	0	0	0
1001	1071	0.004350	0.028080	0.00536	221.00	0.00	0.00	0.00000	0.000	1	0.00	0.00	9.44	-15.23	-9.43	14.82	0	0	0	0
1001	1071	0.004350	0.028080	0.00536	221.00	0.00	0.00	0.00000	0.000	1	0.00	0.00	9.44	-15.23	-9.43	14.82	0	0	0	0
1002	1007	0.077760	0.466930	0.06336	98.00	0.00	0.00	0.00000	0.000	1	0.00	0.00	-10.05	-1.65	10.12	-4.61	0	0	0	0
1010	1002	0.055520	0.135700	0.01777	98.00	0.00	0.00	0.00000	0.000	1	0.00	0.00	-2.59	0.85	2.60	-2.72	0	0	0	0
1004	1003	0.004500	0.115820	0.00000	250.00	0.00	0.00	1.00000	0.000	1	0.00	0.00	-103.59	21.97	104.08	-9.23	0	0	0	0
1004	1003	0.004500	0.115820	0.00000	250.00	0.00	0.00	1.00000	0.000	1	0.00	0.00	-103.59	21.97	104.08	-9.23	0	0	0	0
1004	1003	0.004500	0.115820	0.00000	250.00	0.00	0.00	1.00000	0.000	1	0.00	0.00	-103.59	21.97	104.08	-9.23	0	0	0	0
1022	1003	0.004850	0.020120	0.00341	221.00	0.00	0.00	0.00000	0.000	1	0.00	0.00	88.84	2.62	-88.46	-1.38	0	0	0	0
1022	1003	0.004850	0.020120	0.00341	221.00	0.00	0.00	0.00000	0.000	1	0.00	0.00	88.84	2.62	-88.46	-1.38	0	0	0	0
1055	1003	0.015740	0.037820	0.00513	98.00	0.00	0.00	0.00000	0.000	1	0.00	0.00	45.45	-9.85	-45.11	10.15	0	0	0	0
1055	1003	0.015740	0.037820	0.00513	98.00	0.00	0.00	0.00000	0.000	1	0.00	0.00	45.45	-9.85	-45.11	10.15	0	0	0	0
1055	1003	0.015740	0.037820	0.00513	98.00	0.00	0.00	0.00000	0.000	1	0.00	0.00	45.45	-9.85	-45.11	10.15	0	0	0	0
1004	3133	0.004200	0.030000	0.05500	523.00	0.00	0.00	0.00000	0.000	1	0.00	0.00	234.51	-23.26	-232.23	33.96	0	0	0	0
1004	3133	0.004200	0.030000	0.05500	523.00	0.00	0.00	0.00000	0.000	1	0.00	0.00	234.51	-23.26	-232.23	33.96	0	0	0	0
1006	1005	0.006020	0.147070	0.00000	42.00	0.00	0.00	1.00000	0.000	1	0.00	0.00	12.87	0.89	-12.85	-0.65	0	0	0	0
1006	1005	0.006020	0.147070	0.00000	42.00	0.00	0.00	1.00000	0.000	1	0.00	0.00	12.87	0.89	-12.85	-0.65	0	0	0	0
1025	1005	0.018420	0.082100	0.01204	149.00	0.00	0.00	0.00000	0.000	1	0.00	0.00	-92.38	26.60	94.09	-20.19	0	0	0	0
1025	1005	0.018420	0.082100	0.01204	149.00	0.00	0.00	0.00000	0.000	1	0.00	0.00	-92.38	26.60	94.09	-20.19	0	0	0	0
1025	1005	0.018420	0.082100	0.01204	149.00	0.00	0.00	0.00000	0.000	1	0.00	0.00	-92.38	26.60	94.09	-20.19	0	0	0	0
1005	1061	0.005990	0.024840	0.00422	221.00	0.00	0.00	0.00000	0.000	1	0.00	0.00	89.49	-28.29	-88.96	30.06	0	0	0	0
1005	1061	0.005990	0.024840	0.00422	221.00	0.00	0.00	0.00000	0.000	1	0.00	0.00	89.49	-28.29	-88.96	30.06	0	0	0	0
1067	1005	0.017110	0.041810	0.00548	98.00	0.00	0.00	0.00000	0.000	1	0.00	0.00	54.99	-14.02	-54.44	14.81	0	0	0	0
1067	1005	0.017110	0.041810	0.00548	98.00	0.00	0.00	0.00000	0.000	1	0.00	0.00	54.99	-14.02	-54.44	14.81	0	0	0	0
1067	1005	0.017110	0.041810	0.00548	98.00	0.00	0.00	0.00000	0.000	1	0.00	0.00	54.99	-14.02	-54.44	14.81	0	0	0	0
1067	1005	0.017110	0.041810	0.00548	98.00	0.00	0.00	0.00000	0.000	1	0.00	0.00	54.99	-14.02	-54.44	14.81	0	0	0	0
1067	1005	0.017110	0.041810	0.00548	98.00	0.00	0.00	0.00000	0.000	1	0.00	0.00	54.99	-14.02	-54.44	14.81	0	0	0	0
1067	1005	0.017110	0.041810	0.00548	98.00	0.00	0.00	0.00000	0.000	1	0.00	0.00	54.99	-14.02	-54.44	14.81	0	0	0	0
1067	1005	0.017110	0.041810	0.00548	98.00	0.00	0.00	0.00000	0.000	1	0.00	0.00	54.99	-14.02	-54.44	14.81	0	0	0	0
1067	1005	0.017110	0.041810	0.00548	98.00	0.00	0.00	0.00000	0.000	1	0.00	0.00	54.99	-14.02	-54.44	14.81	0	0	0	0
1007	1015	0.062240	0.373750	0.05072	98.00	0.00	0.00	0.00000	0.000	1	0.00	0.00	9.45	-4.88	-9.40	-0.19	0	0	0	0
1031	1007	0.048030	0.274340	0.04123	98.00	0.00	0.00	0.00000	0.000	1	0.00	0.00	-39.73	-0.13	40.48	0.09	0	0	0	0
1031	1007	0.048030	0.274340	0.04123	98.00	0.00	0.00	0.00000	0.000	1	0.00	0.00	-39.73	-0.13	40.48	0.09	0	0	0	0
1031	1007	0.048030	0.274340	0.04123	98.00	0.00	0.00	0.00000	0.000	1	0.00	0.00	-39.73	-0.13	40.48	0.09	0	0	0	0
1009	1008	0.004550	0.094710	0.00000	120.00	0.00	0.00	1.00000	0.000	1	0.00	0.00	30.94	-5.94	-30.89	6.87	0	0	0	0
1009	1008	0.004550	0.094710	0.00000	120.00	0.00	0.00	1.00000	0.000	1	0.00	0.00	30.94	-5.94	-30.89	6.87	0	0	0	0
1008	1032	0.045010	0.110020	0.01441	98.00	0.00	0.00	0.00000	0.000	1	0.00	0.00	29.19	3.01	-28.81	-3.51	0	0	0	0
1008	1032	0.045010	0.110020	0.01441	98.00	0.00	0.00	0.00000	0.000	1	0.00	0.00	29.19	3.01	-28.81	-3.51	0	0	0	0
1008	1032	0.045010	0.110020	0.01441	98.00	0.00	0.00	0.00000	0.000	1	0.00	0.00	29.19	3.01	-28.81	-3.51	0	0	0	0
1008	1032	0.045010	0.110020	0.01441	98.00	0.00	0.00	0.00000	0.000	1	0.00	0.00	29.19	3.01	-28.81	-3.51	0	0	0	0
1008	1069	0.008300	0.036280	0.00553	149.00	0.00	0.00	0.00000	0.000	1	0.00	0.00	-27.49	-12.88	27.56	12.64	0	0	0	0
1008	1069	0.008300	0.036280	0.00553	149.00	0.00	0.00	0.00000	0.000	1	0.00	0.00	-27.49	-12.88	27.56	12.64	0	0	0	0
1011	1010	0.007210	0.324600	0.00000	46.00	0.00	0.00	1.00000	0.000	1	0.00	0.00	10.00	0.00	-9.99	0.31	0	0	0	0
1010	1015	0.047030	0.282430	0.03833	98.00	0.00	0.00	0.00000	0.000	1	0.00	0.00	-5.76	-2.05	5.77	-1.94	0	0	0	0
1010	1030	0.061600	0.369900	0.05020	98.00	0.00	0.00	0.00000	0.000	1	0.00	0.00	18.35	-2.44	-18.15	-1.67	0	0	0	0
1012	1087	0.049340	0.204690	0.03473	149.00	0.00	0.00	0.00000	0.000	1	0.00	0.00	-53.64	13.78	55.10	-11.39	0	0	0	0
1012	1087	0.049340	0.204690	0.03473	149.00	0.00	0.00	0.00000	0.000	1	0.00	0.00	-53.64	13.78	55.10	-11.39	0	0	0	0
1012	1087	0.049340	0.204690	0.03473	149.00	0.00	0.00	0.00000	0.000	1	0.00	0.00	-53.64	13.78	55.10	-11.39	0	0	0	0
3051	1012	0.057100	0.249770	0.03804	149.00	0.00	0.00	0.00000	0.000	1	0.00	0.00	-51.59	13.59	53.16	-10.73	0	0	0	0
3051	1012	0.057100	0.249770	0.03804	149.00	0.00	0.00	0.00000	0.000	1	0.00	0.00	-51.59	13.59	53.16	-10.73	0	0	0	0
3051	1012	0.057100	0.249770	0.03804	149.00	0.00	0.00	0.00000	0.000	1	0.00	0.00	-51.59	13.59	53.16	-10.73	0	0	0	0
1013	1031	0.045090	0.270780	0.03675	98.00	0.00	0.00	0.00000	0.000	1	0.00	0.00	-55.92	6.14	57.37	-1.11	0	0	0	0
1013	1031	0.045090	0.270780	0.03675	98.00	0.00	0.00	0.00000	0.000	1	0.00	0.00	-55.92	6.14	57.37	-1.11	0	0	0	0
1047	1013	0.009470	0.061170	0.01167	221.00	0.00	0.00	0.00000	0.000	1	0.00	0.00	-98.46	12.86	99.41	-7.87	0	0	0	0
1086	1013	0.079000	0.193110	0.02529	98.00	0.00	0.00	0.00000	0.000	1	0.00	0.00	1.80	10.39	-1.70	-12.69	0	0	0	0
1014	1047	0.035660	0.147940	0.02510	149.00	0.00	0.00	0.00000	0.000	1	0.00	0.00	56.19	-7.06	-55.05	9.29	0	0	0	0
1014	1047	0.035660	0.147940	0.02510	149.00	0.00	0.00	0.00000	0.000	1	0.00	0.00	56.19	-7.06	-55.05	9.29	0	0	0	0
1014	1083	0.041050	0.182930	0.02682	149.00	0.00	0.00	0.00000	0.000	1	0.00	0.00	-56.72	6.74	58.07	-3.45	0	0	0	0
1014	1083	0.041050	0.182930	0.02682	149.00	0.00	0.00	0.00000	0.000	1	0.00	0.00	-56.72	6.74	58.07	-3.45	0	0	0	0
1016	1034	0.018280	0.109760	0.01489	98.00	0.00	0.00	0.00000	0.000	1	0.00	0.00	45.70	-8.04	-45.31	8.90	0	0	0	0
1016	1034	0.018280	0.109760	0.01489	98.00	0.00	0.00	0.00000	0.000	1	0.00	0.00	45.70	-8.04	-45.31	8.90	0	0	0	0
1016	1034	0.018280	0.109760	0.01489	98.00	0.00	0.00	0.00000	0.000	1	0.00	0.00	45.70	-8.04	-45.31	8.90	0	0	0	0
1016	1034	0.018280	0.109760	0.01489	98.00	0.00	0.00	0.00000	0.000	1	0.00	0.00	45.70	-8.04	-45.31	8.90	0	0	0	0
1016	1034	0.018280	0.109760	0.01489	98.00	0.00	0.00	0.00000	0.000	1	0.00	0.00	45.70	-8.04	-45.31	8.90	0	0	0	0
1016	1034	0.018280	0.109760	0.01489	98.00	0.00	0.00	0.00000	0.000	1	0.00	0.00	45.70	-8.04	-45.31	8.90	0	0	0	0
1016	1034	0.018280	0.109760	0.01489	98.00	0.00	0.00	0.00000	0.000	1	0.00	0.00	45.70	-8.04	-45.31	8.90	0	0	0	0
1016	1034	0.018280	0.109760	0.01489	98.00	0.00	0.00	0.00000	0.000	1	0.00	0.00	45.70	-8.04	-45.31	8.90	0	0	0	0
1068	1016	0.027730	0.158370	0.02380	98.00	0.00	0.00	0.00000	0.000	1	0.00	0.00	-15.93	-4.61	16.00	2.68	0	0	0	0
1018	1017	0.032270	0.078870	0.01033	98.00	0.00	0.00	0.00000	0.000	1	0.00	0.00	31.10	1.56	-30.78	-1.77	0	0	0	0
1018	1017	0.032270	0.078870	0.01033	98.00	0.00	0.00	0.00000	0.000	1	0.00	0.00	31.10	1.56	-30.78	-1.77	0	0	0	0
1018	1017	0.032270	0.078870	0.01033	98.00	0.00	0.00	0.00000	0.000	1	0.00	0.00	31.10	1.56	-30.78	-1.77	0	0	0	0
1017	1029	0.032440	0.141880	0.02161	149.00	0.00	0.00	0.00000	0.000	1	0.00	0.00	-38.49	-6.92	39.00	7.06	0	0	0	0
1037	1017	0.007520	0.033520	0.00491	221.00	0.00	0.00	0.00000	0.000	1	0.00	0.00	-81.54	3.95	82.07	-2.05	0	0	0	0
1037	1017	0.007520	0.033520	0.00491	221.00	0.00	0.00	0.00000	0.000	1	0.00	0.00	-81.54	3.95	82.07	-2.05	0	0	0	0
1037	1017	0.007520	0.033520	0.00491	221.00	0.00	0.00	0.00000	0.000	1	0.00	0.00	-81.54	3.95	82.07	-2.05	0	0	0	0
1037	1017	0.007520	0.033520	0.00491	221.00	0.00	0.00	0.00000	0.000	1	0.00	0.00	-81.54	3.95	82.07	-2.05	0	0	0	0
1047	1017	0.036000	0.156000	0.02400	150.00	0.00	0.00	0.00000	0.000	1	0.00	0.00	52.59	-1.75	-51.58	3.81	0	0	0	0
1047	1017	0.036000	0.156000	0.02400	150.00	0.00	0.00	0.00000	0.000	1	0.00	0.00	52.59	-1.75	-51.58	3.81	0	0	0	0
1047	1017	0.036000	0.156000	0.02400	150.00	0.00	0.00	0.00000	0.000	1	0.00	0.00	52.59	-1.75	-51.58	3.81	0	0	0	0
1047	1017	0.036000	0.156000	0.02400	150.00	0.00	0.00	0.00000	0.000	1	0.00	0.00	52.59	-1.75	-51.58	3.81	0	0	0	0
1024	1018	0.010940	0.065720	0.00892	98.00	0.00	0.00	0.00000	0.000	1	0.00	0.00	31.22	1.34	-31.11	-1.56	0	0	0	0
1024	1018	0.010940	0.065720	0.00892	98.00	0.00	0.00	0.00000	0.000	1	0.00	0.00	31.22	1.34	-31.11	-1.56	0	0	0	0
1024	1018	0.010940	0.065720	0.00892	98.00	0.00	0.00	0.00000	0.000	1	0.00	0.00	31.22	1.34	-31.11	-1.56	0	0	0	0
1019	1040	0.049780	0.206510	0.03504	149.00	0.00	0.00	0.00000	0.000	1	0.00	0.00	-63.95	11.08	66.13	-5.47	0	0	0	0
1019	1040	0.049780	0.206510	0.03504	149.00	0.00	0.00	0.00000	0.000	1	0.00	0.00	-63.95	11.08	66.13	-5.47	0	0	0	0
1019	1040	0.049780	0.206510	0.03504	149.00	0.00	0.00	0.00000	0.000	1	0.00	0.00	-63.95	11.08	66.13	-5.47	0	0	0	0
1019	1040	0.049780	0.206510	0.03504	149.00	0.00	0.00	0.00000	0.000	1	0.00	0.00	-63.95	11.08	66.13	-5.47	0	0	0	0
1019	1040	0.049780	0.206510	0.03504	149.00	0.00	0.00	0.00000	0.000	1	0.00	0.00	-63.95	11.08	66.13	-5.47	0	0	0	0
1019	1045	0.015220	0.037200	0.00487	221.00	0.00	0.00	0.00000	0.000	1	0.00	0.00	23.39	16.16	-23.26	-16.32	0	0	0	0
1019	1045	0.015220	0.037200	0.00487	221.00	0.00	0.00	0.00000	0.000	1	0.00	0.00	23.39	16.16	-23.26	-16.32	0	0	0	0
1019	1071	0.004400	0.028000	0.00540	225.00	0.00	0.00	0.00000	0.000	1	0.00	0.00	178.52	16.01	-177.06	-7.24	0	0	0	0
1071	1019	0.004400	0.028000	0.00540	225.00	0.00	0.00	0.00000	0.000	1	0.00	0.00	-177.06	-7.24	178.52	16.01	0	0	0	0
1019	1084	0.030000	0.160000	0.02500	220.00	0.00	0.00	0.00000	0.000	1	0.00	0.00	-56.96	0.67	57.97	2.22	0	0	0	0
1019	1084	0.030000	0.160000	0.02500	220.00	0.00	0.00	0.00000	0.000	1	0.00	0.00	-56.96	0.67	57.97	2.22	0	0	0	0
1021	1020	0.003270	0.078120	0.00000	250.00	0.00	0.00	1.00000	0.000	1	0.00	0.00	74.82	-1.16	-74.63	5.54	0	0	0	0
1021	1020	0.003270	0.078120	0.00000	250.00	0.00	0.00	1.00000	0.000	1	0.00	0.00	74.82	-1.16	-74.63	5.54	0	0	0	0
1025	1020	0.008280	0.034340	0.00583	149.00	0.00	0.00	0.00000	0.000	1	0.00	0.00	74.02	-17.21	-73.55	18.61	0	0	0	0
1025	1020	0.008280	0.034340	0.00583	149.00	0.00	0.00	0.00000	0.000	1	0.00	0.00	74.02	-17.21	-73.55	18.61	0	0	0	0
1025	1020	0.008280	0.034340	0.00583	149.00	0.00	0.00	0.00000	0.000	1	0.00	0.00	74.02	-17.21	-73.55	18.61	0	0	0	0
1025	1020	0.008280	0.034340	0.00583	149.00	0.00	0.00	0.00000	0.000	1	0.00	0.00	74.02	-17.21	-73.55	18.61	0	0	0	0
1025	1020	0.008280	0.034340	0.00583	149.00	0.00	0.00	0.00000	0.000	1	0.00	0.00	74.02	-17.21	-73.55	18.61	0	0	0	0
1084	1020	0.010560	0.063370	0.00860	221.00	0.00	0.00	0.00000	0.000	1	0.00	0.00	-41.31	11.78	41.50	-11.48	0	0	0	0
1020	3059	0.018900	0.060000	0.00600	300.00	0.00	0.00	0.00000	0.000	1	0.00	0.00	123.25	-7.84	-120.37	16.40	0	0	0	0
1020	3059	0.018900	0.060000	0.00600	300.00	0.00	0.00	0.00000	0.000	1	0.00	0.00	123.25	-7.84	-120.37	16.40	0	0	0	0
1020	3059	0.018900	0.060000	0.00600	300.00	0.00	0.00	0.00000	0.000	1	0.00	0.00	123.25	-7.84	-120.37	16.40	0	0	0	0
1020	3130	0.009960	0.069380	0.01134	221.00	0.00	0.00	0.00000	0.000	1	0.00	0.00	52.86	3.83	-52.58	-3.01	0	0	0	0
1020	3130	0.009960	0.069380	0.01134	221.00	0.00	0.00	0.00000	0.000	1	0.00	0.00	52.86	3.83	-52.58	-3.01	0	0	0	0
1023	1022	0.005350	0.117330	0.00000	250.00	0.00	0.00	1.00000	0.000	1	0.00	0.00	107.43	9.21	-106.82	4.16	0	0	0	0
1023	1022	0.005350	0.117330	0.00000	250.00	0.00	0.00	1.00000	0.000	1	0.00	0.00	107.43	9.21	-106.82	4.16	0	0	0	0
1022	1028	0.014330	0.092530	0.01765	221.00	0.00	0.00	0.00000	0.000	1	0.00	0.00	57.91	-6.79	-57.43	8.15	0	0	0	0
1022	1028	0.014330	0.092530	0.01765	221.00	0.00	0.00	0.00000	0.000	1	0.00	0.00	57.91	-6.79	-57.43	8.15	0	0	0	0
1024	1090	0.014140	0.063030	0.00924	149.00	0.00	0.00	0.00000	0.000	1	0.00	0.00	-41.37	-7.29	41.62	7.49	0	0	0	0
1024	1090	0.014140	0.063030	0.00924	149.00	0.00	0.00	0.00000	0.000	1	0.00	0.00	-41.37	-7.29	41.62	7.49	0	0	0	0
...